<?xml version="1.0" encoding="UTF-8"?>
<routes xmlns:xsi="http://www.w3.org/2001/XMLSchema-instance"
        xsi:noNamespaceSchemaLocation="http://sumo.dlr.de/xsd/routes_file.xsd">

    <vType id="toy_car" maxSpeed="13.0" accel="1" decel="1"/>

    <route id="N_to_S" edges="E9 E8"/>
    <route id="N_to_E" edges="E9 E7.61"/>
    <route id="N_to_W" edges="E9 -E7.68"/>

    <route id="S_to_N" edges="-E8 -E9"/>
    <route id="S_to_E" edges="-E8 E7.61"/>
    <route id="S_to_W" edges="-E8 -E7.68"/>

    <route id="E_to_W" edges="-E7 -E7.68"/>
    <route id="E_to_N" edges="-E7 -E9"/>
    <route id="E_to_S" edges="-E7 E8"/>

    <route id="W_to_E" edges="E7 E7.61"/>
    <route id="W_to_N" edges="E7 -E9"/>
    <route id="W_to_S" edges="E7 E8"/>

    <!-- PM peak, randomized departures, insertion-friendly -->
    <flow id="N_right"   type="toy_car" route="N_to_W" begin="0" number="46"  period="exp(0.012778)" departLane="best" departPos="last" departSpeed="desired"/>
    <flow id="N_through" type="toy_car" route="N_to_S" begin="0" number="293" period="exp(0.081389)" departLane="best" departPos="last" departSpeed="desired"/>
    <flow id="N_left"    type="toy_car" route="N_to_E" begin="0" number="52"  period="exp(0.014444)" departLane="best" departPos="last" departSpeed="desired"/>

    <flow id="S_right"   type="toy_car" route="S_to_E" begin="0" number="29"  period="exp(0.008056)" departLane="best" departPos="last" departSpeed="desired"/>
    <flow id="S_through" type="toy_car" route="S_to_N" begin="0" number="332" period="exp(0.092222)" departLane="best" departPos="last" departSpeed="desired"/>
    <flow id="S_left"    type="toy_car" route="S_to_W" begin="0" number="57"  period="exp(0.015833)" departLane="best" departPos="last" departSpeed="desired"/>

    <flow id="E_right"   type="toy_car" route="E_to_N" begin="0" number="42"  period="exp(0.011667)" departLane="best" departPos="last" departSpeed="desired"/>
    <flow id="E_through" type="toy_car" route="E_to_W" begin="0" number="255" period="exp(0.070833)" departLane="best" departPos="last" departSpeed="desired"/>
    <flow id="E_left"    type="toy_car" route="E_to_S" begin="0" number="31"  period="exp(0.008611)" departLane="best" departPos="last" departSpeed="desired"/>

    <flow id="W_right"   type="toy_car" route="W_to_S" begin="0" number="46"  period="exp(0.012778)" departLane="best" departPos="last" departSpeed="desired"/>
    <flow id="W_through" type="toy_car" route="W_to_E" begin="0" number="501" period="exp(0.139167)" departLane="best" departPos="last" departSpeed="desired"/>
    <flow id="W_left"    type="toy_car" route="W_to_N" begin="0" number="36"  period="exp(0.010000)" departLane="best" departPos="last" departSpeed="desired"/>

</routes>