<?xml version="1.0" encoding="UTF-8"?>

<routes xmlns:xsi="http://www.w3.org/2001/XMLSchema-instance" xsi:noNamespaceSchemaLocation="http://sumo.dlr.de/xsd/routes_file.xsd">
    <vType id="toy_car" maxSpeed="13.0" accel="1" decel="1"/>

    <trip id="0" type="toy_car" depart="0.00" from="E9" to="E8"/>
    <trip id="1" type="toy_car" depart="6.94" from="-E8" to="E7.61"/>
    <trip id="2" type="toy_car" depart="15.42" from="-E7" to="-E9"/>
    <trip id="3" type="toy_car" depart="22.98" from="E9" to="E7.61"/>
    <trip id="4" type="toy_car" depart="31.84" from="-E7" to="-E9"/>
    <trip id="5" type="toy_car" depart="40.84" from="E7" to="E8"/>
    <trip id="6" type="toy_car" depart="48.98" from="E7" to="E7.61"/>
    <trip id="7" type="toy_car" depart="56.43" from="-E7" to="-E7.68"/>
    <trip id="8" type="toy_car" depart="64.17" from="E9" to="E8"/>
    <trip id="9" type="toy_car" depart="73.00" from="E9" to="E8"/>
    <trip id="10" type="toy_car" depart="79.86" from="-E7" to="-E9"/>
    <trip id="11" type="toy_car" depart="88.59" from="E9" to="E8"/>
    <trip id="12" type="toy_car" depart="96.56" from="-E8" to="-E7.68"/>
    <trip id="13" type="toy_car" depart="103.99" from="-E8" to="-E9"/>
    <trip id="14" type="toy_car" depart="112.11" from="E9" to="E7.61"/>
    <trip id="15" type="toy_car" depart="120.81" from="E9" to="-E7.68"/>
    <trip id="16" type="toy_car" depart="126.78" from="E7" to="E7.61"/>
    <trip id="17" type="toy_car" depart="136.52" from="-E7" to="-E7.68"/>
    <trip id="18" type="toy_car" depart="143.23" from="-E7" to="-E7.68"/>
    <trip id="19" type="toy_car" depart="151.07" from="-E7" to="-E7.68"/>
    <trip id="20" type="toy_car" depart="159.60" from="-E8" to="-E7.68"/>
    <trip id="21" type="toy_car" depart="168.21" from="-E8" to="E7.61"/>
    <trip id="22" type="toy_car" depart="175.50" from="-E8" to="-E9"/>
    <trip id="23" type="toy_car" depart="183.70" from="E9" to="E7.61"/>
    <trip id="24" type="toy_car" depart="193.18" from="-E7" to="-E7.68"/>
    <trip id="25" type="toy_car" depart="198.79" from="-E7" to="E8"/>
    <trip id="26" type="toy_car" depart="207.47" from="E7" to="E8"/>
    <trip id="27" type="toy_car" depart="214.67" from="E9" to="E7.61"/>
    <trip id="28" type="toy_car" depart="222.60" from="E7" to="-E9"/>
    <trip id="29" type="toy_car" depart="232.13" from="-E8" to="-E7.68"/>
    <trip id="30" type="toy_car" depart="239.98" from="E9" to="E8"/>
    <trip id="31" type="toy_car" depart="248.99" from="E7" to="-E9"/>
    <trip id="32" type="toy_car" depart="256.98" from="-E7" to="E8"/>
    <trip id="33" type="toy_car" depart="265.02" from="-E7" to="-E9"/>
    <trip id="34" type="toy_car" depart="272.00" from="E9" to="E7.61"/>
    <trip id="35" type="toy_car" depart="281.00" from="E7" to="-E9"/>
    <trip id="36" type="toy_car" depart="286.62" from="-E7" to="E8"/>
    <trip id="37" type="toy_car" depart="294.61" from="E9" to="E8"/>
    <trip id="38" type="toy_car" depart="304.25" from="-E8" to="-E7.68"/>
    <trip id="39" type="toy_car" depart="311.44" from="E7" to="E7.61"/>
    <trip id="40" type="toy_car" depart="321.16" from="-E7" to="E8"/>
    <trip id="41" type="toy_car" depart="326.93" from="E9" to="E8"/>
    <trip id="42" type="toy_car" depart="336.15" from="-E7" to="-E9"/>
    <trip id="43" type="toy_car" depart="344.20" from="-E7" to="E8"/>
    <trip id="44" type="toy_car" depart="351.38" from="E7" to="E7.61"/>
    <trip id="45" type="toy_car" depart="361.01" from="E7" to="E7.61"/>
    <trip id="46" type="toy_car" depart="366.66" from="-E8" to="-E7.68"/>
    <trip id="47" type="toy_car" depart="375.75" from="-E8" to="-E7.68"/>
    <trip id="48" type="toy_car" depart="383.38" from="-E7" to="-E7.68"/>
    <trip id="49" type="toy_car" depart="390.91" from="-E7" to="-E7.68"/>
    <trip id="50" type="toy_car" depart="398.85" from="E7" to="E8"/>
    <trip id="51" type="toy_car" depart="407.32" from="E9" to="-E7.68"/>
    <trip id="52" type="toy_car" depart="414.86" from="-E7" to="E8"/>
    <trip id="53" type="toy_car" depart="422.68" from="-E7" to="-E9"/>
    <trip id="54" type="toy_car" depart="430.64" from="E9" to="-E7.68"/>
    <trip id="55" type="toy_car" depart="440.89" from="-E8" to="E7.61"/>
    <trip id="56" type="toy_car" depart="449.23" from="-E8" to="E7.61"/>
    <trip id="57" type="toy_car" depart="455.33" from="E7" to="-E9"/>
    <trip id="58" type="toy_car" depart="463.20" from="E7" to="E7.61"/>
    <trip id="59" type="toy_car" depart="471.56" from="-E7" to="-E7.68"/>
    <trip id="60" type="toy_car" depart="480.07" from="E7" to="-E9"/>
    <trip id="61" type="toy_car" depart="488.92" from="-E7" to="-E9"/>
    <trip id="62" type="toy_car" depart="495.43" from="E9" to="E7.61"/>
    <trip id="63" type="toy_car" depart="504.08" from="-E8" to="-E9"/>
    <trip id="64" type="toy_car" depart="511.63" from="E7" to="-E9"/>
    <trip id="65" type="toy_car" depart="520.50" from="-E7" to="-E9"/>
    <trip id="66" type="toy_car" depart="527.84" from="E7" to="E8"/>
    <trip id="67" type="toy_car" depart="535.12" from="E7" to="E7.61"/>
    <trip id="68" type="toy_car" depart="542.97" from="E9" to="E7.61"/>
    <trip id="69" type="toy_car" depart="553.37" from="-E7" to="-E9"/>
    <trip id="70" type="toy_car" depart="560.55" from="E7" to="E7.61"/>
    <trip id="71" type="toy_car" depart="567.88" from="-E7" to="E8"/>
    <trip id="72" type="toy_car" depart="576.88" from="E9" to="E8"/>
    <trip id="73" type="toy_car" depart="584.86" from="E7" to="E8"/>
    <trip id="74" type="toy_car" depart="590.77" from="E7" to="-E9"/>
    <trip id="75" type="toy_car" depart="598.63" from="E7" to="-E9"/>
</routes>