<?xml version="1.0" encoding="UTF-8"?>

<routes xmlns:xsi="http://www.w3.org/2001/XMLSchema-instance" xsi:noNamespaceSchemaLocation="http://sumo.dlr.de/xsd/routes_file.xsd">
    <vType id="toy_car" maxSpeed="13.0" accel="1" decel="1"/>

    <trip id="0" type="toy_car" depart="0.43" from="-E7" to="-E9"/>
    <trip id="1" type="toy_car" depart="7.02" from="E9" to="-E7.68"/>
    <trip id="2" type="toy_car" depart="14.85" from="E9" to="E8"/>
    <trip id="3" type="toy_car" depart="24.60" from="-E7" to="-E9"/>
    <trip id="4" type="toy_car" depart="31.47" from="E9" to="-E7.68"/>
    <trip id="5" type="toy_car" depart="38.92" from="-E7" to="E8"/>
    <trip id="6" type="toy_car" depart="48.47" from="-E8" to="E7.61"/>
    <trip id="7" type="toy_car" depart="54.90" from="E9" to="E8"/>
    <trip id="8" type="toy_car" depart="63.52" from="E9" to="E8"/>
    <trip id="9" type="toy_car" depart="70.76" from="E9" to="-E7.68"/>
    <trip id="10" type="toy_car" depart="78.66" from="-E8" to="-E9"/>
    <trip id="11" type="toy_car" depart="88.09" from="E7" to="E8"/>
    <trip id="12" type="toy_car" depart="95.61" from="-E7" to="-E7.68"/>
    <trip id="13" type="toy_car" depart="103.05" from="E9" to="E7.61"/>
    <trip id="14" type="toy_car" depart="113.02" from="-E8" to="-E9"/>
    <trip id="15" type="toy_car" depart="121.01" from="E7" to="E7.61"/>
    <trip id="16" type="toy_car" depart="128.56" from="E9" to="E7.61"/>
    <trip id="17" type="toy_car" depart="135.57" from="-E7" to="-E7.68"/>
    <trip id="18" type="toy_car" depart="142.83" from="E7" to="-E9"/>
    <trip id="19" type="toy_car" depart="151.60" from="-E7" to="-E9"/>
    <trip id="20" type="toy_car" depart="159.58" from="E9" to="E8"/>
    <trip id="21" type="toy_car" depart="168.69" from="E9" to="-E7.68"/>
    <trip id="22" type="toy_car" depart="175.39" from="-E8" to="-E7.68"/>
    <trip id="23" type="toy_car" depart="183.57" from="-E7" to="-E7.68"/>
    <trip id="24" type="toy_car" depart="193.31" from="-E7" to="E8"/>
    <trip id="25" type="toy_car" depart="198.56" from="E7" to="E8"/>
    <trip id="26" type="toy_car" depart="208.49" from="-E7" to="-E9"/>
    <trip id="27" type="toy_car" depart="216.28" from="E9" to="E7.61"/>
    <trip id="28" type="toy_car" depart="224.97" from="-E8" to="-E7.68"/>
    <trip id="29" type="toy_car" depart="232.75" from="E7" to="-E9"/>
    <trip id="30" type="toy_car" depart="241.30" from="-E7" to="-E9"/>
    <trip id="31" type="toy_car" depart="247.83" from="E9" to="-E7.68"/>
    <trip id="32" type="toy_car" depart="256.35" from="-E7" to="-E9"/>
    <trip id="33" type="toy_car" depart="265.30" from="-E7" to="E8"/>
    <trip id="34" type="toy_car" depart="271.14" from="E9" to="E8"/>
    <trip id="35" type="toy_car" depart="280.18" from="-E7" to="E8"/>
    <trip id="36" type="toy_car" depart="289.25" from="-E7" to="-E7.68"/>
    <trip id="37" type="toy_car" depart="294.90" from="-E7" to="-E7.68"/>
    <trip id="38" type="toy_car" depart="303.94" from="-E7" to="-E9"/>
    <trip id="39" type="toy_car" depart="311.23" from="E9" to="E7.61"/>
    <trip id="40" type="toy_car" depart="320.44" from="-E8" to="E7.61"/>
    <trip id="41" type="toy_car" depart="327.72" from="-E7" to="-E9"/>
    <trip id="42" type="toy_car" depart="335.83" from="E9" to="-E7.68"/>
    <trip id="43" type="toy_car" depart="344.66" from="-E7" to="-E7.68"/>
    <trip id="44" type="toy_car" depart="350.98" from="E7" to="E8"/>
    <trip id="45" type="toy_car" depart="359.30" from="-E7" to="-E7.68"/>
    <trip id="46" type="toy_car" depart="369.13" from="E7" to="E8"/>
    <trip id="47" type="toy_car" depart="375.48" from="-E8" to="E7.61"/>
    <trip id="48" type="toy_car" depart="384.48" from="-E7" to="-E7.68"/>
    <trip id="49" type="toy_car" depart="391.84" from="E9" to="-E7.68"/>
    <trip id="50" type="toy_car" depart="401.19" from="E9" to="E7.61"/>
    <trip id="51" type="toy_car" depart="406.82" from="E9" to="-E7.68"/>
    <trip id="52" type="toy_car" depart="415.65" from="E7" to="-E9"/>
    <trip id="53" type="toy_car" depart="424.36" from="E7" to="-E9"/>
    <trip id="54" type="toy_car" depart="431.64" from="E7" to="-E9"/>
    <trip id="55" type="toy_car" depart="440.24" from="E9" to="-E7.68"/>
    <trip id="56" type="toy_car" depart="447.25" from="-E7" to="-E9"/>
    <trip id="57" type="toy_car" depart="454.62" from="-E7" to="-E9"/>
    <trip id="58" type="toy_car" depart="465.27" from="E7" to="E8"/>
    <trip id="59" type="toy_car" depart="470.82" from="E9" to="E8"/>
    <trip id="60" type="toy_car" depart="479.03" from="-E7" to="-E7.68"/>
    <trip id="61" type="toy_car" depart="489.23" from="E7" to="-E9"/>
    <trip id="62" type="toy_car" depart="496.21" from="-E8" to="-E7.68"/>
    <trip id="63" type="toy_car" depart="503.78" from="E7" to="-E9"/>
    <trip id="64" type="toy_car" depart="513.06" from="-E7" to="-E7.68"/>
    <trip id="65" type="toy_car" depart="518.83" from="-E8" to="-E7.68"/>
    <trip id="66" type="toy_car" depart="528.44" from="E7" to="E8"/>
    <trip id="67" type="toy_car" depart="535.55" from="-E7" to="E8"/>
    <trip id="68" type="toy_car" depart="543.95" from="-E7" to="-E9"/>
    <trip id="69" type="toy_car" depart="552.01" from="E7" to="E8"/>
    <trip id="70" type="toy_car" depart="559.32" from="E7" to="E7.61"/>
    <trip id="71" type="toy_car" depart="569.10" from="E7" to="E8"/>
    <trip id="72" type="toy_car" depart="575.04" from="E9" to="E8"/>
    <trip id="73" type="toy_car" depart="583.13" from="-E7" to="E8"/>
    <trip id="74" type="toy_car" depart="591.80" from="-E7" to="-E9"/>
    <trip id="75" type="toy_car" depart="599.31" from="E7" to="E8"/>
</routes>