<?xml version="1.0" encoding="UTF-8"?>

<routes xmlns:xsi="http://www.w3.org/2001/XMLSchema-instance" xsi:noNamespaceSchemaLocation="http://sumo.dlr.de/xsd/routes_file.xsd">
    <vType id="toy_car" maxSpeed="13.0" accel="1" decel="1"/>

    <trip id="0" type="toy_car" depart="0.00" from="-E8" to="E7.61"/>
    <trip id="1" type="toy_car" depart="6.58" from="E7" to="E8"/>
    <trip id="2" type="toy_car" depart="15.84" from="E7" to="-E9"/>
    <trip id="3" type="toy_car" depart="24.01" from="-E7" to="-E9"/>
    <trip id="4" type="toy_car" depart="31.62" from="-E8" to="-E9"/>
    <trip id="5" type="toy_car" depart="39.01" from="E9" to="-E7.68"/>
    <trip id="6" type="toy_car" depart="48.89" from="-E8" to="E7.61"/>
    <trip id="7" type="toy_car" depart="57.02" from="-E8" to="E7.61"/>
    <trip id="8" type="toy_car" depart="62.91" from="-E7" to="E8"/>
    <trip id="9" type="toy_car" depart="72.70" from="E7" to="E7.61"/>
    <trip id="10" type="toy_car" depart="78.90" from="-E7" to="-E7.68"/>
    <trip id="11" type="toy_car" depart="88.33" from="E7" to="E8"/>
    <trip id="12" type="toy_car" depart="95.44" from="E9" to="E7.61"/>
    <trip id="13" type="toy_car" depart="103.41" from="-E7" to="E8"/>
    <trip id="14" type="toy_car" depart="112.53" from="-E7" to="-E7.68"/>
    <trip id="15" type="toy_car" depart="120.97" from="-E8" to="E7.61"/>
    <trip id="16" type="toy_car" depart="127.40" from="E9" to="-E7.68"/>
    <trip id="17" type="toy_car" depart="136.48" from="-E7" to="-E7.68"/>
    <trip id="18" type="toy_car" depart="143.08" from="E7" to="-E9"/>
    <trip id="19" type="toy_car" depart="153.14" from="-E8" to="-E7.68"/>
    <trip id="20" type="toy_car" depart="158.96" from="E9" to="-E7.68"/>
    <trip id="21" type="toy_car" depart="167.77" from="E7" to="-E9"/>
    <trip id="22" type="toy_car" depart="177.34" from="-E7" to="E8"/>
    <trip id="23" type="toy_car" depart="183.34" from="-E8" to="E7.61"/>
    <trip id="24" type="toy_car" depart="192.64" from="E7" to="E8"/>
    <trip id="25" type="toy_car" depart="201.25" from="E9" to="E8"/>
    <trip id="26" type="toy_car" depart="207.33" from="-E8" to="-E7.68"/>
    <trip id="27" type="toy_car" depart="216.92" from="-E8" to="-E9"/>
    <trip id="28" type="toy_car" depart="223.79" from="E9" to="-E7.68"/>
    <trip id="29" type="toy_car" depart="231.28" from="E7" to="E7.61"/>
    <trip id="30" type="toy_car" depart="238.59" from="-E8" to="-E7.68"/>
    <trip id="31" type="toy_car" depart="246.68" from="-E8" to="-E9"/>
    <trip id="32" type="toy_car" depart="256.65" from="-E7" to="-E9"/>
    <trip id="33" type="toy_car" depart="262.73" from="-E8" to="-E9"/>
    <trip id="34" type="toy_car" depart="272.21" from="-E8" to="E7.61"/>
    <trip id="35" type="toy_car" depart="280.71" from="-E7" to="-E9"/>
    <trip id="36" type="toy_car" depart="287.89" from="E9" to="E7.61"/>
    <trip id="37" type="toy_car" depart="296.46" from="E7" to="E8"/>
    <trip id="38" type="toy_car" depart="303.09" from="-E8" to="-E9"/>
    <trip id="39" type="toy_car" depart="313.13" from="E9" to="E8"/>
    <trip id="40" type="toy_car" depart="320.00" from="E7" to="E8"/>
    <trip id="41" type="toy_car" depart="327.67" from="E7" to="E8"/>
    <trip id="42" type="toy_car" depart="335.62" from="-E8" to="-E9"/>
    <trip id="43" type="toy_car" depart="343.51" from="-E8" to="E7.61"/>
    <trip id="44" type="toy_car" depart="352.48" from="-E7" to="-E9"/>
    <trip id="45" type="toy_car" depart="359.28" from="-E8" to="E7.61"/>
    <trip id="46" type="toy_car" depart="367.08" from="-E8" to="-E7.68"/>
    <trip id="47" type="toy_car" depart="375.70" from="-E7" to="-E7.68"/>
    <trip id="48" type="toy_car" depart="383.17" from="-E7" to="-E7.68"/>
    <trip id="49" type="toy_car" depart="393.40" from="E9" to="E7.61"/>
    <trip id="50" type="toy_car" depart="401.29" from="-E8" to="-E9"/>
    <trip id="51" type="toy_car" depart="408.30" from="E7" to="E7.61"/>
    <trip id="52" type="toy_car" depart="415.82" from="-E8" to="-E7.68"/>
    <trip id="53" type="toy_car" depart="422.86" from="E9" to="E8"/>
    <trip id="54" type="toy_car" depart="432.15" from="E7" to="-E9"/>
    <trip id="55" type="toy_car" depart="438.87" from="-E8" to="E7.61"/>
    <trip id="56" type="toy_car" depart="448.94" from="-E7" to="E8"/>
    <trip id="57" type="toy_car" depart="455.78" from="E9" to="-E7.68"/>
    <trip id="58" type="toy_car" depart="463.46" from="E7" to="E8"/>
    <trip id="59" type="toy_car" depart="473.16" from="-E7" to="-E9"/>
    <trip id="60" type="toy_car" depart="480.18" from="E9" to="-E7.68"/>
    <trip id="61" type="toy_car" depart="487.05" from="E7" to="-E9"/>
    <trip id="62" type="toy_car" depart="495.27" from="-E7" to="-E9"/>
    <trip id="63" type="toy_car" depart="505.13" from="-E7" to="-E9"/>
    <trip id="64" type="toy_car" depart="513.06" from="-E8" to="E7.61"/>
    <trip id="65" type="toy_car" depart="519.18" from="-E8" to="E7.61"/>
    <trip id="66" type="toy_car" depart="527.78" from="E9" to="E7.61"/>
    <trip id="67" type="toy_car" depart="535.84" from="E7" to="E7.61"/>
    <trip id="68" type="toy_car" depart="544.63" from="E9" to="E8"/>
    <trip id="69" type="toy_car" depart="550.74" from="-E7" to="-E9"/>
    <trip id="70" type="toy_car" depart="561.16" from="-E8" to="-E9"/>
    <trip id="71" type="toy_car" depart="568.71" from="E7" to="E7.61"/>
    <trip id="72" type="toy_car" depart="576.65" from="E9" to="E8"/>
    <trip id="73" type="toy_car" depart="584.37" from="E7" to="E8"/>
    <trip id="74" type="toy_car" depart="591.20" from="-E8" to="-E7.68"/>
    <trip id="75" type="toy_car" depart="600.57" from="E7" to="E7.61"/>
</routes>