<?xml version="1.0" encoding="UTF-8"?>

<routes xmlns:xsi="http://www.w3.org/2001/XMLSchema-instance" xsi:noNamespaceSchemaLocation="http://sumo.dlr.de/xsd/routes_file.xsd">
    <vType id="toy_car" maxSpeed="13.0" accel="1" decel="1"/>

    <trip id="0" type="toy_car" depart="1.14" from="E7" to="-E9"/>
    <trip id="1" type="toy_car" depart="8.47" from="E7" to="E7.61"/>
    <trip id="2" type="toy_car" depart="17.25" from="E7" to="E7.61"/>
    <trip id="3" type="toy_car" depart="24.25" from="-E7" to="-E9"/>
    <trip id="4" type="toy_car" depart="30.62" from="-E8" to="-E9"/>
    <trip id="5" type="toy_car" depart="39.50" from="-E7" to="-E7.68"/>
    <trip id="6" type="toy_car" depart="48.41" from="-E7" to="E8"/>
    <trip id="7" type="toy_car" depart="57.34" from="E9" to="-E7.68"/>
    <trip id="8" type="toy_car" depart="63.43" from="E9" to="-E7.68"/>
    <trip id="9" type="toy_car" depart="71.94" from="E9" to="E7.61"/>
    <trip id="10" type="toy_car" depart="81.20" from="-E7" to="-E7.68"/>
    <trip id="11" type="toy_car" depart="88.53" from="-E8" to="-E9"/>
    <trip id="12" type="toy_car" depart="94.56" from="E9" to="-E7.68"/>
    <trip id="13" type="toy_car" depart="102.77" from="E9" to="-E7.68"/>
    <trip id="14" type="toy_car" depart="111.75" from="E9" to="-E7.68"/>
    <trip id="15" type="toy_car" depart="121.26" from="E7" to="E7.61"/>
    <trip id="16" type="toy_car" depart="127.33" from="E9" to="E8"/>
    <trip id="17" type="toy_car" depart="136.60" from="E7" to="E7.61"/>
    <trip id="18" type="toy_car" depart="144.56" from="-E7" to="E8"/>
    <trip id="19" type="toy_car" depart="152.42" from="E9" to="-E7.68"/>
    <trip id="20" type="toy_car" depart="161.36" from="-E8" to="-E9"/>
    <trip id="21" type="toy_car" depart="168.31" from="-E8" to="-E7.68"/>
    <trip id="22" type="toy_car" depart="176.58" from="-E7" to="-E9"/>
    <trip id="23" type="toy_car" depart="183.63" from="E7" to="-E9"/>
    <trip id="24" type="toy_car" depart="193.11" from="-E8" to="-E7.68"/>
    <trip id="25" type="toy_car" depart="201.19" from="E7" to="-E9"/>
    <trip id="26" type="toy_car" depart="207.54" from="E9" to="E8"/>
    <trip id="27" type="toy_car" depart="216.41" from="-E7" to="E8"/>
    <trip id="28" type="toy_car" depart="225.07" from="-E7" to="-E7.68"/>
    <trip id="29" type="toy_car" depart="231.24" from="E7" to="E7.61"/>
    <trip id="30" type="toy_car" depart="239.39" from="-E7" to="E8"/>
    <trip id="31" type="toy_car" depart="249.08" from="E7" to="-E9"/>
    <trip id="32" type="toy_car" depart="257.15" from="E9" to="E7.61"/>
    <trip id="33" type="toy_car" depart="263.19" from="E9" to="E7.61"/>
    <trip id="34" type="toy_car" depart="273.17" from="-E8" to="-E7.68"/>
    <trip id="35" type="toy_car" depart="281.02" from="E7" to="-E9"/>
    <trip id="36" type="toy_car" depart="287.57" from="-E8" to="-E9"/>
    <trip id="37" type="toy_car" depart="296.30" from="E9" to="E7.61"/>
    <trip id="38" type="toy_car" depart="302.76" from="E9" to="E8"/>
    <trip id="39" type="toy_car" depart="313.44" from="E9" to="E7.61"/>
    <trip id="40" type="toy_car" depart="319.34" from="E7" to="-E9"/>
    <trip id="41" type="toy_car" depart="327.36" from="-E8" to="-E9"/>
    <trip id="42" type="toy_car" depart="336.68" from="-E8" to="E7.61"/>
    <trip id="43" type="toy_car" depart="345.10" from="-E8" to="-E7.68"/>
    <trip id="44" type="toy_car" depart="351.22" from="-E8" to="-E9"/>
    <trip id="45" type="toy_car" depart="360.53" from="-E7" to="-E7.68"/>
    <trip id="46" type="toy_car" depart="366.62" from="-E7" to="E8"/>
    <trip id="47" type="toy_car" depart="377.34" from="E7" to="E7.61"/>
    <trip id="48" type="toy_car" depart="384.85" from="-E8" to="E7.61"/>
    <trip id="49" type="toy_car" depart="392.67" from="E7" to="-E9"/>
    <trip id="50" type="toy_car" depart="400.16" from="-E8" to="-E7.68"/>
    <trip id="51" type="toy_car" depart="407.38" from="E9" to="E8"/>
    <trip id="52" type="toy_car" depart="416.92" from="E7" to="-E9"/>
    <trip id="53" type="toy_car" depart="425.05" from="E9" to="E8"/>
    <trip id="54" type="toy_car" depart="430.64" from="E9" to="E8"/>
    <trip id="55" type="toy_car" depart="441.35" from="E9" to="-E7.68"/>
    <trip id="56" type="toy_car" depart="448.76" from="-E7" to="-E7.68"/>
    <trip id="57" type="toy_car" depart="456.45" from="E7" to="-E9"/>
    <trip id="58" type="toy_car" depart="464.37" from="-E8" to="-E9"/>
    <trip id="59" type="toy_car" depart="472.60" from="-E7" to="-E9"/>
    <trip id="60" type="toy_car" depart="479.85" from="E9" to="-E7.68"/>
    <trip id="61" type="toy_car" depart="487.71" from="-E7" to="E8"/>
    <trip id="62" type="toy_car" depart="496.81" from="E7" to="-E9"/>
    <trip id="63" type="toy_car" depart="503.99" from="E9" to="E7.61"/>
    <trip id="64" type="toy_car" depart="511.54" from="E9" to="E7.61"/>
    <trip id="65" type="toy_car" depart="518.63" from="E7" to="-E9"/>
    <trip id="66" type="toy_car" depart="529.39" from="E9" to="E8"/>
    <trip id="67" type="toy_car" depart="537.40" from="E7" to="-E9"/>
    <trip id="68" type="toy_car" depart="544.94" from="E7" to="E8"/>
    <trip id="69" type="toy_car" depart="552.86" from="E7" to="E8"/>
    <trip id="70" type="toy_car" depart="561.08" from="E7" to="-E9"/>
    <trip id="71" type="toy_car" depart="566.60" from="E7" to="E8"/>
    <trip id="72" type="toy_car" depart="576.76" from="E7" to="E7.61"/>
    <trip id="73" type="toy_car" depart="584.83" from="-E7" to="-E7.68"/>
    <trip id="74" type="toy_car" depart="591.17" from="E7" to="E8"/>
    <trip id="75" type="toy_car" depart="598.57" from="E9" to="E8"/>
</routes>