<?xml version="1.0" encoding="UTF-8"?>

<routes xmlns:xsi="http://www.w3.org/2001/XMLSchema-instance" xsi:noNamespaceSchemaLocation="http://sumo.dlr.de/xsd/routes_file.xsd">
    <vType id="toy_car" maxSpeed="13.0" accel="1" decel="1"/>

    <trip id="0" type="toy_car" depart="0.00" from="-E8" to="E7.61"/>
    <trip id="1" type="toy_car" depart="7.92" from="E9" to="E7.61"/>
    <trip id="2" type="toy_car" depart="15.31" from="-E7" to="E8"/>
    <trip id="3" type="toy_car" depart="24.54" from="-E7" to="-E9"/>
    <trip id="4" type="toy_car" depart="33.10" from="E7" to="-E9"/>
    <trip id="5" type="toy_car" depart="40.46" from="-E7" to="E8"/>
    <trip id="6" type="toy_car" depart="47.04" from="-E7" to="-E9"/>
    <trip id="7" type="toy_car" depart="55.82" from="-E8" to="E7.61"/>
    <trip id="8" type="toy_car" depart="64.56" from="E7" to="-E9"/>
    <trip id="9" type="toy_car" depart="71.83" from="-E8" to="E7.61"/>
    <trip id="10" type="toy_car" depart="81.27" from="-E7" to="-E7.68"/>
    <trip id="11" type="toy_car" depart="88.34" from="-E7" to="-E7.68"/>
    <trip id="12" type="toy_car" depart="96.53" from="E9" to="-E7.68"/>
    <trip id="13" type="toy_car" depart="104.54" from="E7" to="E8"/>
    <trip id="14" type="toy_car" depart="112.50" from="E7" to="E7.61"/>
    <trip id="15" type="toy_car" depart="118.60" from="-E8" to="E7.61"/>
    <trip id="16" type="toy_car" depart="127.60" from="E9" to="E8"/>
    <trip id="17" type="toy_car" depart="135.35" from="-E8" to="E7.61"/>
    <trip id="18" type="toy_car" depart="143.31" from="E7" to="E8"/>
    <trip id="19" type="toy_car" depart="152.95" from="-E7" to="-E9"/>
    <trip id="20" type="toy_car" depart="160.67" from="-E8" to="E7.61"/>
    <trip id="21" type="toy_car" depart="168.97" from="E9" to="E8"/>
    <trip id="22" type="toy_car" depart="177.41" from="E7" to="E7.61"/>
    <trip id="23" type="toy_car" depart="182.61" from="-E8" to="-E7.68"/>
    <trip id="24" type="toy_car" depart="191.90" from="E7" to="-E9"/>
    <trip id="25" type="toy_car" depart="200.06" from="E7" to="E7.61"/>
    <trip id="26" type="toy_car" depart="207.31" from="-E8" to="-E9"/>
    <trip id="27" type="toy_car" depart="217.07" from="-E7" to="E8"/>
    <trip id="28" type="toy_car" depart="222.62" from="-E8" to="-E7.68"/>
    <trip id="29" type="toy_car" depart="232.57" from="-E7" to="E8"/>
    <trip id="30" type="toy_car" depart="238.91" from="-E7" to="-E7.68"/>
    <trip id="31" type="toy_car" depart="248.99" from="E9" to="E8"/>
    <trip id="32" type="toy_car" depart="256.79" from="-E8" to="E7.61"/>
    <trip id="33" type="toy_car" depart="263.92" from="-E7" to="-E9"/>
    <trip id="34" type="toy_car" depart="272.64" from="-E7" to="-E9"/>
    <trip id="35" type="toy_car" depart="279.75" from="-E7" to="E8"/>
    <trip id="36" type="toy_car" depart="288.61" from="-E7" to="-E9"/>
    <trip id="37" type="toy_car" depart="297.14" from="E7" to="-E9"/>
    <trip id="38" type="toy_car" depart="305.17" from="-E7" to="-E7.68"/>
    <trip id="39" type="toy_car" depart="312.35" from="E7" to="E7.61"/>
    <trip id="40" type="toy_car" depart="320.41" from="-E8" to="-E9"/>
    <trip id="41" type="toy_car" depart="327.92" from="-E8" to="-E7.68"/>
    <trip id="42" type="toy_car" depart="334.84" from="-E7" to="-E7.68"/>
    <trip id="43" type="toy_car" depart="343.38" from="-E8" to="-E9"/>
    <trip id="44" type="toy_car" depart="352.13" from="-E7" to="-E7.68"/>
    <trip id="45" type="toy_car" depart="358.58" from="E9" to="E7.61"/>
    <trip id="46" type="toy_car" depart="367.84" from="-E8" to="E7.61"/>
    <trip id="47" type="toy_car" depart="376.15" from="-E8" to="-E7.68"/>
    <trip id="48" type="toy_car" depart="385.37" from="E7" to="-E9"/>
    <trip id="49" type="toy_car" depart="390.94" from="E9" to="E8"/>
    <trip id="50" type="toy_car" depart="399.47" from="-E8" to="E7.61"/>
    <trip id="51" type="toy_car" depart="408.93" from="-E8" to="-E9"/>
    <trip id="52" type="toy_car" depart="417.05" from="-E7" to="E8"/>
    <trip id="53" type="toy_car" depart="424.23" from="-E8" to="E7.61"/>
    <trip id="54" type="toy_car" depart="431.94" from="-E7" to="E8"/>
    <trip id="55" type="toy_car" depart="439.75" from="-E7" to="-E9"/>
    <trip id="56" type="toy_car" depart="449.28" from="E7" to="E8"/>
    <trip id="57" type="toy_car" depart="456.64" from="-E7" to="-E7.68"/>
    <trip id="58" type="toy_car" depart="464.23" from="-E7" to="E8"/>
    <trip id="59" type="toy_car" depart="470.65" from="E9" to="E7.61"/>
    <trip id="60" type="toy_car" depart="478.83" from="E9" to="E8"/>
    <trip id="61" type="toy_car" depart="489.02" from="-E8" to="-E9"/>
    <trip id="62" type="toy_car" depart="496.92" from="E7" to="-E9"/>
    <trip id="63" type="toy_car" depart="502.94" from="-E8" to="-E7.68"/>
    <trip id="64" type="toy_car" depart="510.68" from="E7" to="-E9"/>
    <trip id="65" type="toy_car" depart="520.47" from="E9" to="E7.61"/>
    <trip id="66" type="toy_car" depart="529.04" from="E9" to="-E7.68"/>
    <trip id="67" type="toy_car" depart="537.40" from="E9" to="E7.61"/>
    <trip id="68" type="toy_car" depart="544.52" from="-E8" to="-E7.68"/>
    <trip id="69" type="toy_car" depart="553.34" from="E7" to="E8"/>
    <trip id="70" type="toy_car" depart="559.27" from="-E7" to="E8"/>
    <trip id="71" type="toy_car" depart="569.27" from="-E8" to="-E9"/>
    <trip id="72" type="toy_car" depart="576.99" from="E7" to="E7.61"/>
    <trip id="73" type="toy_car" depart="582.94" from="-E7" to="-E9"/>
    <trip id="74" type="toy_car" depart="592.11" from="E9" to="E8"/>
    <trip id="75" type="toy_car" depart="599.16" from="E7" to="E8"/>
</routes>