<?xml version="1.0" encoding="UTF-8"?>

<routes xmlns:xsi="http://www.w3.org/2001/XMLSchema-instance" xsi:noNamespaceSchemaLocation="http://sumo.dlr.de/xsd/routes_file.xsd">
    <vType id="toy_car" maxSpeed="13.0" accel="0.5" decel="0.5"/>

    <trip id="0" type="toy_car" depart="5.24" from="-E7" to="-E7.68"/>
    <trip id="1" type="toy_car" depart="27.86" from="-E8" to="E7.61"/>
    <trip id="2" type="toy_car" depart="58.97" from="E7" to="-E9"/>
    <trip id="3" type="toy_car" depart="87.45" from="E9" to="E8"/>
    <trip id="4" type="toy_car" depart="117.97" from="-E7" to="E8"/>
    <trip id="5" type="toy_car" depart="153.13" from="E9" to="-E7.68"/>
    <trip id="6" type="toy_car" depart="184.80" from="-E7" to="-E9"/>
    <trip id="7" type="toy_car" depart="214.04" from="-E8" to="E7.61"/>
    <trip id="8" type="toy_car" depart="237.81" from="E9" to="E8"/>
    <trip id="9" type="toy_car" depart="273.47" from="E9" to="E7.61"/>
    <trip id="10" type="toy_car" depart="301.80" from="E7" to="-E9"/>
    <trip id="11" type="toy_car" depart="334.19" from="-E7" to="-E7.68"/>
    <trip id="12" type="toy_car" depart="354.79" from="-E7" to="-E9"/>
    <trip id="13" type="toy_car" depart="392.60" from="E7" to="E7.61"/>
    <trip id="14" type="toy_car" depart="419.37" from="-E7" to="-E7.68"/>
    <trip id="15" type="toy_car" depart="447.54" from="E9" to="-E7.68"/>
    <trip id="16" type="toy_car" depart="480.05" from="E7" to="E7.61"/>
    <trip id="17" type="toy_car" depart="504.90" from="E7" to="E8"/>
    <trip id="18" type="toy_car" depart="544.17" from="-E8" to="-E7.68"/>
    <trip id="19" type="toy_car" depart="568.18" from="E7" to="E7.61"/>
    <trip id="20" type="toy_car" depart="603.76" from="E9" to="E8"/>
</routes>