<?xml version="1.0" encoding="UTF-8"?>

<routes xmlns:xsi="http://www.w3.org/2001/XMLSchema-instance" xsi:noNamespaceSchemaLocation="http://sumo.dlr.de/xsd/routes_file.xsd">
    <vType id="toy_car" maxSpeed="13.0" accel="1" decel="1"/>

    <trip id="0" type="toy_car" depart="2.16" from="-E7" to="E8"/>
    <trip id="1" type="toy_car" depart="17.24" from="-E7" to="-E9"/>
    <trip id="2" type="toy_car" depart="32.51" from="E9" to="-E7.68"/>
    <trip id="3" type="toy_car" depart="43.54" from="-E8" to="-E7.68"/>
    <trip id="4" type="toy_car" depart="59.64" from="E9" to="E8"/>
    <trip id="5" type="toy_car" depart="74.86" from="E9" to="E7.61"/>
    <trip id="6" type="toy_car" depart="91.78" from="-E8" to="-E7.68"/>
    <trip id="7" type="toy_car" depart="104.48" from="-E7" to="-E9"/>
    <trip id="8" type="toy_car" depart="117.36" from="E9" to="E7.61"/>
    <trip id="9" type="toy_car" depart="137.35" from="-E7" to="E8"/>
    <trip id="10" type="toy_car" depart="151.89" from="E7" to="-E9"/>
    <trip id="11" type="toy_car" depart="163.31" from="E7" to="E7.61"/>
    <trip id="12" type="toy_car" depart="178.22" from="E7" to="-E9"/>
    <trip id="13" type="toy_car" depart="193.99" from="E9" to="-E7.68"/>
    <trip id="14" type="toy_car" depart="209.15" from="-E8" to="-E7.68"/>
    <trip id="15" type="toy_car" depart="223.66" from="E9" to="E7.61"/>
    <trip id="16" type="toy_car" depart="237.77" from="-E7" to="E8"/>
    <trip id="17" type="toy_car" depart="256.76" from="-E8" to="-E9"/>
    <trip id="18" type="toy_car" depart="267.59" from="E9" to="E8"/>
    <trip id="19" type="toy_car" depart="286.32" from="E7" to="E8"/>
    <trip id="20" type="toy_car" depart="300.27" from="E9" to="E7.61"/>
    <trip id="21" type="toy_car" depart="316.08" from="-E8" to="E7.61"/>
    <trip id="22" type="toy_car" depart="328.22" from="-E7" to="-E7.68"/>
    <trip id="23" type="toy_car" depart="344.04" from="-E7" to="-E9"/>
    <trip id="24" type="toy_car" depart="360.43" from="-E7" to="-E7.68"/>
    <trip id="25" type="toy_car" depart="372.50" from="-E7" to="-E9"/>
    <trip id="26" type="toy_car" depart="387.37" from="-E8" to="-E7.68"/>
    <trip id="27" type="toy_car" depart="406.41" from="E9" to="-E7.68"/>
    <trip id="28" type="toy_car" depart="421.99" from="-E7" to="E8"/>
    <trip id="29" type="toy_car" depart="434.28" from="E7" to="E7.61"/>
    <trip id="30" type="toy_car" depart="447.61" from="-E7" to="-E9"/>
    <trip id="31" type="toy_car" depart="464.51" from="-E7" to="E8"/>
    <trip id="32" type="toy_car" depart="478.60" from="E7" to="-E9"/>
    <trip id="33" type="toy_car" depart="497.20" from="-E8" to="-E7.68"/>
    <trip id="34" type="toy_car" depart="507.74" from="-E7" to="E8"/>
    <trip id="35" type="toy_car" depart="526.97" from="-E8" to="E7.61"/>
    <trip id="36" type="toy_car" depart="542.61" from="-E7" to="-E7.68"/>
    <trip id="37" type="toy_car" depart="554.30" from="E9" to="-E7.68"/>
    <trip id="38" type="toy_car" depart="572.02" from="E9" to="E7.61"/>
    <trip id="39" type="toy_car" depart="585.43" from="E9" to="E7.61"/>
    <trip id="40" type="toy_car" depart="598.33" from="-E7" to="E8"/>
</routes>