<?xml version="1.0" encoding="UTF-8"?>

<routes xmlns:xsi="http://www.w3.org/2001/XMLSchema-instance" xsi:noNamespaceSchemaLocation="http://sumo.dlr.de/xsd/routes_file.xsd">
    <vType id="toy_car" maxSpeed="13.0" accel="1" decel="1"/>

    <trip id="0" type="toy_car" depart="0.00" from="E7" to="-E9"/>
    <trip id="1" type="toy_car" depart="16.86" from="-E7" to="E8"/>
    <trip id="2" type="toy_car" depart="28.16" from="-E7" to="-E9"/>
    <trip id="3" type="toy_car" depart="42.82" from="-E7" to="-E9"/>
    <trip id="4" type="toy_car" depart="61.51" from="-E8" to="-E9"/>
    <trip id="5" type="toy_car" depart="76.96" from="-E8" to="-E9"/>
    <trip id="6" type="toy_car" depart="87.83" from="-E7" to="-E7.68"/>
    <trip id="7" type="toy_car" depart="105.73" from="-E7" to="-E7.68"/>
    <trip id="8" type="toy_car" depart="118.44" from="E9" to="-E7.68"/>
    <trip id="9" type="toy_car" depart="137.38" from="E7" to="E7.61"/>
    <trip id="10" type="toy_car" depart="147.48" from="E9" to="-E7.68"/>
    <trip id="11" type="toy_car" depart="163.41" from="-E7" to="-E7.68"/>
    <trip id="12" type="toy_car" depart="179.91" from="E7" to="E8"/>
    <trip id="13" type="toy_car" depart="194.11" from="E7" to="E8"/>
    <trip id="14" type="toy_car" depart="209.41" from="E7" to="-E9"/>
    <trip id="15" type="toy_car" depart="227.54" from="-E7" to="-E9"/>
    <trip id="16" type="toy_car" depart="242.39" from="-E7" to="E8"/>
    <trip id="17" type="toy_car" depart="254.00" from="E9" to="-E7.68"/>
    <trip id="18" type="toy_car" depart="269.04" from="E9" to="E7.61"/>
    <trip id="19" type="toy_car" depart="287.49" from="-E8" to="-E9"/>
    <trip id="20" type="toy_car" depart="298.88" from="E7" to="E8"/>
    <trip id="21" type="toy_car" depart="316.16" from="E9" to="E7.61"/>
    <trip id="22" type="toy_car" depart="331.00" from="-E7" to="E8"/>
    <trip id="23" type="toy_car" depart="343.78" from="E7" to="E8"/>
    <trip id="24" type="toy_car" depart="361.14" from="-E8" to="-E9"/>
    <trip id="25" type="toy_car" depart="375.02" from="-E8" to="-E9"/>
    <trip id="26" type="toy_car" depart="388.80" from="-E8" to="-E7.68"/>
    <trip id="27" type="toy_car" depart="406.01" from="-E7" to="-E9"/>
    <trip id="28" type="toy_car" depart="422.54" from="-E8" to="-E9"/>
    <trip id="29" type="toy_car" depart="436.00" from="E9" to="-E7.68"/>
    <trip id="30" type="toy_car" depart="450.15" from="-E7" to="-E9"/>
    <trip id="31" type="toy_car" depart="463.38" from="E9" to="E8"/>
    <trip id="32" type="toy_car" depart="477.62" from="-E7" to="E8"/>
    <trip id="33" type="toy_car" depart="495.85" from="-E8" to="E7.61"/>
    <trip id="34" type="toy_car" depart="510.26" from="E7" to="E8"/>
    <trip id="35" type="toy_car" depart="522.81" from="-E7" to="-E9"/>
    <trip id="36" type="toy_car" depart="538.17" from="-E7" to="-E7.68"/>
    <trip id="37" type="toy_car" depart="555.04" from="-E8" to="-E7.68"/>
    <trip id="38" type="toy_car" depart="572.13" from="E9" to="E8"/>
    <trip id="39" type="toy_car" depart="585.61" from="E7" to="E8"/>
    <trip id="40" type="toy_car" depart="598.85" from="E7" to="E8"/>
</routes>