<?xml version="1.0" encoding="UTF-8"?>

<routes xmlns:xsi="http://www.w3.org/2001/XMLSchema-instance" xsi:noNamespaceSchemaLocation="http://sumo.dlr.de/xsd/routes_file.xsd">
    <vType id="toy_car" maxSpeed="13.0" accel="1" decel="1"/>

    <trip id="0" type="toy_car" depart="0.58" from="-E8" to="-E7.68"/>
    <trip id="1" type="toy_car" depart="17.15" from="E9" to="E7.61"/>
    <trip id="2" type="toy_car" depart="27.70" from="E7" to="E8"/>
    <trip id="3" type="toy_car" depart="44.84" from="-E8" to="-E7.68"/>
    <trip id="4" type="toy_car" depart="60.89" from="E7" to="E8"/>
    <trip id="5" type="toy_car" depart="74.48" from="-E7" to="E8"/>
    <trip id="6" type="toy_car" depart="91.75" from="-E7" to="E8"/>
    <trip id="7" type="toy_car" depart="102.95" from="E9" to="E8"/>
    <trip id="8" type="toy_car" depart="118.14" from="-E7" to="E8"/>
    <trip id="9" type="toy_car" depart="134.78" from="E7" to="E7.61"/>
    <trip id="10" type="toy_car" depart="149.75" from="E9" to="-E7.68"/>
    <trip id="11" type="toy_car" depart="163.55" from="E7" to="E8"/>
    <trip id="12" type="toy_car" depart="179.98" from="-E8" to="E7.61"/>
    <trip id="13" type="toy_car" depart="193.17" from="E9" to="E8"/>
    <trip id="14" type="toy_car" depart="210.35" from="-E8" to="-E7.68"/>
    <trip id="15" type="toy_car" depart="223.64" from="E9" to="E7.61"/>
    <trip id="16" type="toy_car" depart="239.19" from="E7" to="E8"/>
    <trip id="17" type="toy_car" depart="254.97" from="E9" to="E7.61"/>
    <trip id="18" type="toy_car" depart="267.88" from="E7" to="E7.61"/>
    <trip id="19" type="toy_car" depart="287.23" from="E9" to="E8"/>
    <trip id="20" type="toy_car" depart="297.80" from="-E7" to="E8"/>
    <trip id="21" type="toy_car" depart="317.15" from="-E8" to="E7.61"/>
    <trip id="22" type="toy_car" depart="329.71" from="-E8" to="-E7.68"/>
    <trip id="23" type="toy_car" depart="342.63" from="E9" to="E8"/>
    <trip id="24" type="toy_car" depart="358.76" from="-E7" to="-E7.68"/>
    <trip id="25" type="toy_car" depart="374.90" from="E7" to="E8"/>
    <trip id="26" type="toy_car" depart="388.12" from="E9" to="E7.61"/>
    <trip id="27" type="toy_car" depart="405.08" from="E9" to="E8"/>
    <trip id="28" type="toy_car" depart="420.68" from="-E8" to="-E7.68"/>
    <trip id="29" type="toy_car" depart="432.41" from="-E8" to="E7.61"/>
    <trip id="30" type="toy_car" depart="448.42" from="E7" to="E7.61"/>
    <trip id="31" type="toy_car" depart="465.81" from="-E7" to="-E9"/>
    <trip id="32" type="toy_car" depart="478.85" from="-E7" to="-E7.68"/>
    <trip id="33" type="toy_car" depart="496.46" from="E9" to="E8"/>
    <trip id="34" type="toy_car" depart="507.78" from="E9" to="E7.61"/>
    <trip id="35" type="toy_car" depart="522.82" from="-E8" to="-E9"/>
    <trip id="36" type="toy_car" depart="537.44" from="-E8" to="-E9"/>
    <trip id="37" type="toy_car" depart="555.28" from="-E7" to="-E9"/>
    <trip id="38" type="toy_car" depart="568.29" from="-E7" to="-E9"/>
    <trip id="39" type="toy_car" depart="583.41" from="-E7" to="E8"/>
    <trip id="40" type="toy_car" depart="598.11" from="E9" to="E8"/>
</routes>