<?xml version="1.0" encoding="UTF-8"?>

<routes xmlns:xsi="http://www.w3.org/2001/XMLSchema-instance" xsi:noNamespaceSchemaLocation="http://sumo.dlr.de/xsd/routes_file.xsd">
    <vType id="toy_car" maxSpeed="13.0" accel="1" decel="1"/>

    <trip id="0" type="toy_car" depart="0.00" from="E9" to="E7.61"/>
    <trip id="1" type="toy_car" depart="10.52" from="-E7" to="E8"/>
    <trip id="2" type="toy_car" depart="19.45" from="E7" to="E7.61"/>
    <trip id="3" type="toy_car" depart="29.18" from="E9" to="E8"/>
    <trip id="4" type="toy_car" depart="39.68" from="-E7" to="-E7.68"/>
    <trip id="5" type="toy_car" depart="50.84" from="E9" to="E7.61"/>
    <trip id="6" type="toy_car" depart="58.64" from="-E8" to="-E7.68"/>
    <trip id="7" type="toy_car" depart="69.98" from="-E7" to="E8"/>
    <trip id="8" type="toy_car" depart="81.29" from="-E7" to="E8"/>
    <trip id="9" type="toy_car" depart="91.70" from="E7" to="E7.61"/>
    <trip id="10" type="toy_car" depart="99.89" from="E9" to="E8"/>
    <trip id="11" type="toy_car" depart="111.43" from="-E7" to="E8"/>
    <trip id="12" type="toy_car" depart="118.38" from="E7" to="-E9"/>
    <trip id="13" type="toy_car" depart="130.11" from="E7" to="-E9"/>
    <trip id="14" type="toy_car" depart="141.53" from="-E7" to="-E9"/>
    <trip id="15" type="toy_car" depart="148.71" from="-E8" to="-E9"/>
    <trip id="16" type="toy_car" depart="159.28" from="E9" to="E7.61"/>
    <trip id="17" type="toy_car" depart="168.46" from="-E7" to="E8"/>
    <trip id="18" type="toy_car" depart="178.79" from="E9" to="E8"/>
    <trip id="19" type="toy_car" depart="190.21" from="E9" to="E7.61"/>
    <trip id="20" type="toy_car" depart="200.74" from="-E7" to="-E7.68"/>
    <trip id="21" type="toy_car" depart="210.10" from="-E7" to="-E9"/>
    <trip id="22" type="toy_car" depart="219.62" from="E7" to="E7.61"/>
    <trip id="23" type="toy_car" depart="230.23" from="-E8" to="E7.61"/>
    <trip id="24" type="toy_car" depart="240.50" from="-E7" to="-E9"/>
    <trip id="25" type="toy_car" depart="249.47" from="E9" to="E7.61"/>
    <trip id="26" type="toy_car" depart="261.18" from="E9" to="-E7.68"/>
    <trip id="27" type="toy_car" depart="268.80" from="E7" to="E8"/>
    <trip id="28" type="toy_car" depart="279.86" from="E7" to="E8"/>
    <trip id="29" type="toy_car" depart="291.66" from="-E7" to="-E7.68"/>
    <trip id="30" type="toy_car" depart="298.34" from="E7" to="E8"/>
    <trip id="31" type="toy_car" depart="311.36" from="-E7" to="E8"/>
    <trip id="32" type="toy_car" depart="318.36" from="E9" to="E7.61"/>
    <trip id="33" type="toy_car" depart="328.21" from="-E7" to="E8"/>
    <trip id="34" type="toy_car" depart="340.72" from="E7" to="E7.61"/>
    <trip id="35" type="toy_car" depart="348.92" from="-E7" to="E8"/>
    <trip id="36" type="toy_car" depart="360.46" from="E7" to="E7.61"/>
    <trip id="37" type="toy_car" depart="371.52" from="E7" to="E7.61"/>
    <trip id="38" type="toy_car" depart="380.34" from="E7" to="E7.61"/>
    <trip id="39" type="toy_car" depart="390.86" from="E7" to="E7.61"/>
    <trip id="40" type="toy_car" depart="401.06" from="-E8" to="E7.61"/>
    <trip id="41" type="toy_car" depart="408.80" from="E7" to="E8"/>
    <trip id="42" type="toy_car" depart="418.63" from="-E7" to="-E7.68"/>
    <trip id="43" type="toy_car" depart="431.07" from="-E7" to="-E9"/>
    <trip id="44" type="toy_car" depart="438.57" from="-E8" to="-E7.68"/>
    <trip id="45" type="toy_car" depart="451.71" from="E9" to="-E7.68"/>
    <trip id="46" type="toy_car" depart="459.36" from="-E7" to="-E9"/>
    <trip id="47" type="toy_car" depart="469.95" from="-E7" to="-E9"/>
    <trip id="48" type="toy_car" depart="478.47" from="E7" to="E7.61"/>
    <trip id="49" type="toy_car" depart="491.11" from="E7" to="E8"/>
    <trip id="50" type="toy_car" depart="499.80" from="-E8" to="-E9"/>
    <trip id="51" type="toy_car" depart="510.60" from="E7" to="E7.61"/>
    <trip id="52" type="toy_car" depart="518.62" from="E7" to="E8"/>
    <trip id="53" type="toy_car" depart="530.23" from="E7" to="E8"/>
    <trip id="54" type="toy_car" depart="541.40" from="-E8" to="-E7.68"/>
    <trip id="55" type="toy_car" depart="550.63" from="E9" to="E7.61"/>
    <trip id="56" type="toy_car" depart="558.95" from="-E8" to="E7.61"/>
    <trip id="57" type="toy_car" depart="569.87" from="E9" to="E7.61"/>
    <trip id="58" type="toy_car" depart="579.40" from="-E7" to="-E9"/>
    <trip id="59" type="toy_car" depart="589.03" from="-E8" to="-E7.68"/>
    <trip id="60" type="toy_car" depart="601.18" from="-E7" to="-E7.68"/>
    <trip id="61" type="toy_car" depart="609.38" from="-E8" to="E7.61"/>
    <trip id="62" type="toy_car" depart="621.17" from="E7" to="E8"/>
    <trip id="63" type="toy_car" depart="630.05" from="E9" to="E7.61"/>
    <trip id="64" type="toy_car" depart="639.20" from="-E7" to="E8"/>
    <trip id="65" type="toy_car" depart="650.85" from="E9" to="E8"/>
    <trip id="66" type="toy_car" depart="660.79" from="E9" to="-E7.68"/>
    <trip id="67" type="toy_car" depart="669.41" from="E9" to="E8"/>
    <trip id="68" type="toy_car" depart="681.08" from="E7" to="E7.61"/>
    <trip id="69" type="toy_car" depart="691.30" from="-E7" to="-E9"/>
    <trip id="70" type="toy_car" depart="701.05" from="-E8" to="-E9"/>
</routes>