<?xml version="1.0" encoding="UTF-8"?>

<routes xmlns:xsi="http://www.w3.org/2001/XMLSchema-instance" xsi:noNamespaceSchemaLocation="http://sumo.dlr.de/xsd/routes_file.xsd">
    <vType id="toy_car" maxSpeed="13.0" accel="1" decel="1"/>

    <trip id="0" type="toy_car" depart="0.00" from="-E7" to="-E7.68"/>
    <trip id="1" type="toy_car" depart="10.88" from="E7" to="-E9"/>
    <trip id="2" type="toy_car" depart="21.23" from="E9" to="E7.61"/>
    <trip id="3" type="toy_car" depart="28.24" from="-E8" to="-E9"/>
    <trip id="4" type="toy_car" depart="39.71" from="E7" to="E7.61"/>
    <trip id="5" type="toy_car" depart="50.54" from="-E7" to="-E9"/>
    <trip id="6" type="toy_car" depart="58.27" from="E7" to="-E9"/>
    <trip id="7" type="toy_car" depart="68.52" from="-E7" to="-E7.68"/>
    <trip id="8" type="toy_car" depart="79.97" from="-E7" to="E8"/>
    <trip id="9" type="toy_car" depart="91.23" from="E9" to="-E7.68"/>
    <trip id="10" type="toy_car" depart="99.63" from="-E7" to="-E7.68"/>
    <trip id="11" type="toy_car" depart="110.93" from="E7" to="E7.61"/>
    <trip id="12" type="toy_car" depart="120.80" from="E9" to="E8"/>
    <trip id="13" type="toy_car" depart="129.27" from="-E7" to="-E9"/>
    <trip id="14" type="toy_car" depart="140.24" from="E9" to="-E7.68"/>
    <trip id="15" type="toy_car" depart="149.88" from="-E7" to="-E9"/>
    <trip id="16" type="toy_car" depart="159.38" from="E7" to="-E9"/>
    <trip id="17" type="toy_car" depart="169.87" from="-E7" to="-E7.68"/>
    <trip id="18" type="toy_car" depart="179.06" from="-E7" to="-E7.68"/>
    <trip id="19" type="toy_car" depart="190.71" from="-E8" to="-E7.68"/>
    <trip id="20" type="toy_car" depart="199.61" from="E7" to="-E9"/>
    <trip id="21" type="toy_car" depart="209.95" from="-E8" to="-E9"/>
    <trip id="22" type="toy_car" depart="221.64" from="-E7" to="E8"/>
    <trip id="23" type="toy_car" depart="230.77" from="E7" to="E8"/>
    <trip id="24" type="toy_car" depart="238.44" from="-E8" to="E7.61"/>
    <trip id="25" type="toy_car" depart="249.60" from="-E8" to="-E7.68"/>
    <trip id="26" type="toy_car" depart="261.01" from="E7" to="E8"/>
    <trip id="27" type="toy_car" depart="269.23" from="E7" to="E7.61"/>
    <trip id="28" type="toy_car" depart="281.49" from="E7" to="E8"/>
    <trip id="29" type="toy_car" depart="289.07" from="E7" to="-E9"/>
    <trip id="30" type="toy_car" depart="301.48" from="E7" to="E8"/>
    <trip id="31" type="toy_car" depart="308.41" from="-E7" to="-E9"/>
    <trip id="32" type="toy_car" depart="318.44" from="E7" to="-E9"/>
    <trip id="33" type="toy_car" depart="330.82" from="E9" to="E8"/>
    <trip id="34" type="toy_car" depart="339.85" from="E9" to="E8"/>
    <trip id="35" type="toy_car" depart="351.22" from="E7" to="E8"/>
    <trip id="36" type="toy_car" depart="358.26" from="E7" to="E8"/>
    <trip id="37" type="toy_car" depart="370.03" from="-E7" to="-E7.68"/>
    <trip id="38" type="toy_car" depart="378.26" from="-E8" to="-E7.68"/>
    <trip id="39" type="toy_car" depart="391.30" from="-E8" to="-E7.68"/>
    <trip id="40" type="toy_car" depart="399.04" from="-E8" to="-E7.68"/>
    <trip id="41" type="toy_car" depart="408.45" from="E7" to="-E9"/>
    <trip id="42" type="toy_car" depart="419.10" from="E9" to="-E7.68"/>
    <trip id="43" type="toy_car" depart="431.67" from="-E7" to="-E7.68"/>
    <trip id="44" type="toy_car" depart="441.75" from="E7" to="E8"/>
    <trip id="45" type="toy_car" depart="451.40" from="-E7" to="-E7.68"/>
    <trip id="46" type="toy_car" depart="461.55" from="-E7" to="-E7.68"/>
    <trip id="47" type="toy_car" depart="469.68" from="-E8" to="-E7.68"/>
    <trip id="48" type="toy_car" depart="481.72" from="E9" to="-E7.68"/>
    <trip id="49" type="toy_car" depart="490.91" from="-E8" to="-E7.68"/>
    <trip id="50" type="toy_car" depart="500.45" from="-E8" to="-E9"/>
    <trip id="51" type="toy_car" depart="509.47" from="-E7" to="-E7.68"/>
    <trip id="52" type="toy_car" depart="519.60" from="-E8" to="-E9"/>
    <trip id="53" type="toy_car" depart="531.53" from="E7" to="-E9"/>
    <trip id="54" type="toy_car" depart="541.03" from="E7" to="E7.61"/>
    <trip id="55" type="toy_car" depart="549.61" from="E7" to="E8"/>
    <trip id="56" type="toy_car" depart="558.25" from="E7" to="E7.61"/>
    <trip id="57" type="toy_car" depart="570.15" from="E9" to="E8"/>
    <trip id="58" type="toy_car" depart="579.48" from="E7" to="-E9"/>
    <trip id="59" type="toy_car" depart="588.24" from="-E8" to="-E7.68"/>
    <trip id="60" type="toy_car" depart="598.92" from="E7" to="E7.61"/>
    <trip id="61" type="toy_car" depart="608.42" from="E9" to="E8"/>
    <trip id="62" type="toy_car" depart="620.69" from="E9" to="E8"/>
    <trip id="63" type="toy_car" depart="629.13" from="-E8" to="-E9"/>
    <trip id="64" type="toy_car" depart="639.19" from="E9" to="-E7.68"/>
    <trip id="65" type="toy_car" depart="650.85" from="E9" to="-E7.68"/>
    <trip id="66" type="toy_car" depart="659.80" from="E7" to="E8"/>
    <trip id="67" type="toy_car" depart="671.69" from="E7" to="E8"/>
    <trip id="68" type="toy_car" depart="679.19" from="-E7" to="-E9"/>
    <trip id="69" type="toy_car" depart="691.55" from="E7" to="-E9"/>
    <trip id="70" type="toy_car" depart="699.31" from="E9" to="E8"/>
</routes>