<?xml version="1.0" encoding="UTF-8"?>

<routes xmlns:xsi="http://www.w3.org/2001/XMLSchema-instance" xsi:noNamespaceSchemaLocation="http://sumo.dlr.de/xsd/routes_file.xsd">
    <vType id="toy_car" maxSpeed="13.0" accel="1" decel="1"/>

    <trip id="0" type="toy_car" depart="0.00" from="E7" to="-E9"/>
    <trip id="1" type="toy_car" depart="6.36" from="-E8" to="E7.61"/>
    <trip id="2" type="toy_car" depart="11.73" from="-E7" to="-E9"/>
    <trip id="3" type="toy_car" depart="18.22" from="-E8" to="E7.61"/>
    <trip id="4" type="toy_car" depart="23.95" from="E7" to="E8"/>
    <trip id="5" type="toy_car" depart="30.31" from="-E7" to="E8"/>
    <trip id="6" type="toy_car" depart="36.27" from="E9" to="E8"/>
    <trip id="7" type="toy_car" depart="42.29" from="-E8" to="E7.61"/>
    <trip id="8" type="toy_car" depart="48.25" from="E7" to="E7.61"/>
    <trip id="9" type="toy_car" depart="55.08" from="-E8" to="E7.61"/>
    <trip id="10" type="toy_car" depart="59.20" from="E7" to="E7.61"/>
    <trip id="11" type="toy_car" depart="65.40" from="E9" to="-E7.68"/>
    <trip id="12" type="toy_car" depart="71.81" from="-E7" to="-E9"/>
    <trip id="13" type="toy_car" depart="78.53" from="-E7" to="-E9"/>
    <trip id="14" type="toy_car" depart="84.56" from="E9" to="-E7.68"/>
    <trip id="15" type="toy_car" depart="89.15" from="-E8" to="E7.61"/>
    <trip id="16" type="toy_car" depart="95.80" from="E9" to="E7.61"/>
    <trip id="17" type="toy_car" depart="102.32" from="-E7" to="-E9"/>
    <trip id="18" type="toy_car" depart="108.19" from="-E7" to="-E7.68"/>
    <trip id="19" type="toy_car" depart="113.65" from="-E7" to="E8"/>
    <trip id="20" type="toy_car" depart="120.31" from="-E7" to="E8"/>
    <trip id="21" type="toy_car" depart="125.05" from="E9" to="-E7.68"/>
    <trip id="22" type="toy_car" depart="132.60" from="E7" to="-E9"/>
    <trip id="23" type="toy_car" depart="137.04" from="E7" to="E7.61"/>
    <trip id="24" type="toy_car" depart="143.43" from="-E8" to="E7.61"/>
    <trip id="25" type="toy_car" depart="149.00" from="-E7" to="-E7.68"/>
    <trip id="26" type="toy_car" depart="155.69" from="-E7" to="E8"/>
    <trip id="27" type="toy_car" depart="161.68" from="E9" to="E7.61"/>
    <trip id="28" type="toy_car" depart="168.48" from="-E8" to="E7.61"/>
    <trip id="29" type="toy_car" depart="175.02" from="E9" to="E7.61"/>
    <trip id="30" type="toy_car" depart="179.26" from="E7" to="E7.61"/>
    <trip id="31" type="toy_car" depart="186.93" from="E9" to="E7.61"/>
    <trip id="32" type="toy_car" depart="191.90" from="-E7" to="-E9"/>
    <trip id="33" type="toy_car" depart="198.52" from="-E7" to="E8"/>
    <trip id="34" type="toy_car" depart="203.03" from="E9" to="E7.61"/>
    <trip id="35" type="toy_car" depart="211.05" from="-E7" to="E8"/>
    <trip id="36" type="toy_car" depart="215.66" from="E7" to="E7.61"/>
    <trip id="37" type="toy_car" depart="222.05" from="-E7" to="-E9"/>
    <trip id="38" type="toy_car" depart="228.92" from="-E7" to="-E7.68"/>
    <trip id="39" type="toy_car" depart="233.43" from="E7" to="E7.61"/>
    <trip id="40" type="toy_car" depart="240.95" from="E7" to="E8"/>
    <trip id="41" type="toy_car" depart="246.68" from="-E7" to="-E9"/>
    <trip id="42" type="toy_car" depart="251.51" from="-E7" to="E8"/>
    <trip id="43" type="toy_car" depart="257.47" from="-E7" to="-E9"/>
    <trip id="44" type="toy_car" depart="263.88" from="E9" to="E8"/>
    <trip id="45" type="toy_car" depart="270.72" from="-E7" to="E8"/>
    <trip id="46" type="toy_car" depart="275.92" from="-E7" to="-E9"/>
    <trip id="47" type="toy_car" depart="282.19" from="-E7" to="-E7.68"/>
    <trip id="48" type="toy_car" depart="287.18" from="E7" to="E8"/>
    <trip id="49" type="toy_car" depart="294.17" from="-E8" to="E7.61"/>
    <trip id="50" type="toy_car" depart="300.91" from="E9" to="E7.61"/>
    <trip id="51" type="toy_car" depart="306.35" from="E7" to="E7.61"/>
    <trip id="52" type="toy_car" depart="311.42" from="E7" to="E7.61"/>
    <trip id="53" type="toy_car" depart="317.38" from="-E7" to="E8"/>
    <trip id="54" type="toy_car" depart="322.96" from="-E7" to="E8"/>
    <trip id="55" type="toy_car" depart="329.23" from="E9" to="E7.61"/>
    <trip id="56" type="toy_car" depart="336.02" from="-E7" to="-E7.68"/>
    <trip id="57" type="toy_car" depart="341.15" from="-E7" to="E8"/>
    <trip id="58" type="toy_car" depart="348.83" from="E9" to="E8"/>
    <trip id="59" type="toy_car" depart="353.36" from="-E7" to="-E7.68"/>
    <trip id="60" type="toy_car" depart="359.05" from="-E7" to="-E7.68"/>
    <trip id="61" type="toy_car" depart="365.36" from="-E8" to="-E7.68"/>
    <trip id="62" type="toy_car" depart="372.22" from="-E7" to="-E9"/>
    <trip id="63" type="toy_car" depart="377.73" from="-E8" to="-E7.68"/>
    <trip id="64" type="toy_car" depart="383.81" from="-E8" to="-E7.68"/>
    <trip id="65" type="toy_car" depart="389.77" from="-E7" to="E8"/>
    <trip id="66" type="toy_car" depart="395.93" from="E7" to="E7.61"/>
    <trip id="67" type="toy_car" depart="401.02" from="-E7" to="-E9"/>
    <trip id="68" type="toy_car" depart="408.57" from="-E7" to="E8"/>
    <trip id="69" type="toy_car" depart="413.55" from="-E8" to="-E9"/>
    <trip id="70" type="toy_car" depart="419.34" from="-E7" to="-E7.68"/>
    <trip id="71" type="toy_car" depart="426.58" from="-E7" to="-E9"/>
    <trip id="72" type="toy_car" depart="432.16" from="E7" to="E8"/>
    <trip id="73" type="toy_car" depart="437.00" from="E9" to="E7.61"/>
    <trip id="74" type="toy_car" depart="443.17" from="-E7" to="-E9"/>
    <trip id="75" type="toy_car" depart="449.15" from="-E7" to="E8"/>
    <trip id="76" type="toy_car" depart="455.97" from="-E7" to="E8"/>
    <trip id="77" type="toy_car" depart="461.08" from="-E8" to="E7.61"/>
    <trip id="78" type="toy_car" depart="467.11" from="E9" to="E8"/>
    <trip id="79" type="toy_car" depart="474.30" from="-E7" to="E8"/>
    <trip id="80" type="toy_car" depart="479.17" from="-E7" to="E8"/>
    <trip id="81" type="toy_car" depart="484.92" from="E7" to="E8"/>
    <trip id="82" type="toy_car" depart="492.34" from="E9" to="E7.61"/>
    <trip id="83" type="toy_car" depart="496.94" from="-E8" to="-E7.68"/>
    <trip id="84" type="toy_car" depart="504.85" from="E9" to="E8"/>
    <trip id="85" type="toy_car" depart="510.59" from="-E8" to="E7.61"/>
    <trip id="86" type="toy_car" depart="515.92" from="E7" to="E7.61"/>
    <trip id="87" type="toy_car" depart="521.83" from="E7" to="E7.61"/>
    <trip id="88" type="toy_car" depart="529.04" from="-E8" to="-E9"/>
    <trip id="89" type="toy_car" depart="534.48" from="E7" to="-E9"/>
    <trip id="90" type="toy_car" depart="538.94" from="-E7" to="-E7.68"/>
    <trip id="91" type="toy_car" depart="546.03" from="E9" to="E7.61"/>
    <trip id="92" type="toy_car" depart="552.21" from="E7" to="E7.61"/>
    <trip id="93" type="toy_car" depart="556.97" from="E7" to="E7.61"/>
    <trip id="94" type="toy_car" depart="564.06" from="E7" to="E7.61"/>
    <trip id="95" type="toy_car" depart="570.64" from="E9" to="E7.61"/>
    <trip id="96" type="toy_car" depart="576.32" from="-E7" to="E8"/>
    <trip id="97" type="toy_car" depart="582.95" from="E7" to="E7.61"/>
    <trip id="98" type="toy_car" depart="587.78" from="E9" to="E7.61"/>
    <trip id="99" type="toy_car" depart="594.33" from="-E7" to="E8"/>
    <trip id="100" type="toy_car" depart="600.21" from="-E7" to="E8"/>
    <trip id="101" type="toy_car" depart="604.92" from="E7" to="E7.61"/>
    <trip id="102" type="toy_car" depart="612.38" from="E7" to="E8"/>
    <trip id="103" type="toy_car" depart="618.22" from="-E8" to="E7.61"/>
    <trip id="104" type="toy_car" depart="624.02" from="E9" to="E8"/>
    <trip id="105" type="toy_car" depart="629.65" from="E9" to="E7.61"/>
    <trip id="106" type="toy_car" depart="635.67" from="E9" to="E8"/>
    <trip id="107" type="toy_car" depart="641.45" from="-E8" to="-E7.68"/>
    <trip id="108" type="toy_car" depart="648.94" from="-E7" to="E8"/>
    <trip id="109" type="toy_car" depart="654.71" from="-E7" to="E8"/>
    <trip id="110" type="toy_car" depart="660.81" from="E7" to="E8"/>
    <trip id="111" type="toy_car" depart="666.18" from="-E7" to="E8"/>
    <trip id="112" type="toy_car" depart="673.02" from="-E8" to="E7.61"/>
    <trip id="113" type="toy_car" depart="677.95" from="E9" to="E7.61"/>
    <trip id="114" type="toy_car" depart="683.53" from="E7" to="-E9"/>
    <trip id="115" type="toy_car" depart="690.85" from="-E8" to="-E9"/>
    <trip id="116" type="toy_car" depart="696.06" from="E7" to="E8"/>
</routes>