<?xml version="1.0" encoding="UTF-8"?>

<routes xmlns:xsi="http://www.w3.org/2001/XMLSchema-instance" xsi:noNamespaceSchemaLocation="http://sumo.dlr.de/xsd/routes_file.xsd">
    <vType id="toy_car" maxSpeed="13.0" accel="1" decel="1"/>

    <trip id="0" type="toy_car" depart="0.00" from="-E7" to="-E7.68"/>
    <trip id="1" type="toy_car" depart="11.28" from="E9" to="-E7.68"/>
    <trip id="2" type="toy_car" depart="19.37" from="E7" to="E7.61"/>
    <trip id="3" type="toy_car" depart="30.21" from="-E8" to="E7.61"/>
    <trip id="4" type="toy_car" depart="41.12" from="-E8" to="-E9"/>
    <trip id="5" type="toy_car" depart="50.46" from="-E7" to="-E9"/>
    <trip id="6" type="toy_car" depart="59.55" from="E7" to="E7.61"/>
    <trip id="7" type="toy_car" depart="69.06" from="E9" to="E8"/>
    <trip id="8" type="toy_car" depart="80.68" from="E9" to="E7.61"/>
    <trip id="9" type="toy_car" depart="90.95" from="E9" to="-E7.68"/>
    <trip id="10" type="toy_car" depart="99.26" from="E9" to="E8"/>
    <trip id="11" type="toy_car" depart="111.29" from="E9" to="E8"/>
    <trip id="12" type="toy_car" depart="121.29" from="E7" to="-E9"/>
    <trip id="13" type="toy_car" depart="130.53" from="-E7" to="-E9"/>
    <trip id="14" type="toy_car" depart="141.57" from="-E7" to="E8"/>
    <trip id="15" type="toy_car" depart="149.81" from="E9" to="-E7.68"/>
    <trip id="16" type="toy_car" depart="159.47" from="-E7" to="-E7.68"/>
    <trip id="17" type="toy_car" depart="171.05" from="-E7" to="E8"/>
    <trip id="18" type="toy_car" depart="178.54" from="E7" to="E7.61"/>
    <trip id="19" type="toy_car" depart="190.78" from="E9" to="E7.61"/>
    <trip id="20" type="toy_car" depart="200.97" from="-E7" to="-E7.68"/>
    <trip id="21" type="toy_car" depart="209.08" from="-E7" to="-E7.68"/>
    <trip id="22" type="toy_car" depart="221.36" from="-E7" to="-E9"/>
    <trip id="23" type="toy_car" depart="228.70" from="-E8" to="-E9"/>
    <trip id="24" type="toy_car" depart="241.71" from="-E7" to="E8"/>
    <trip id="25" type="toy_car" depart="251.42" from="E9" to="-E7.68"/>
    <trip id="26" type="toy_car" depart="258.62" from="-E8" to="E7.61"/>
    <trip id="27" type="toy_car" depart="269.76" from="-E7" to="-E9"/>
    <trip id="28" type="toy_car" depart="279.61" from="E9" to="-E7.68"/>
    <trip id="29" type="toy_car" depart="290.64" from="E9" to="-E7.68"/>
    <trip id="30" type="toy_car" depart="300.81" from="-E7" to="-E7.68"/>
    <trip id="31" type="toy_car" depart="308.41" from="-E7" to="E8"/>
    <trip id="32" type="toy_car" depart="318.21" from="-E7" to="-E9"/>
    <trip id="33" type="toy_car" depart="328.34" from="E9" to="E7.61"/>
    <trip id="34" type="toy_car" depart="340.01" from="E9" to="E7.61"/>
    <trip id="35" type="toy_car" depart="349.91" from="E7" to="E7.61"/>
    <trip id="36" type="toy_car" depart="359.51" from="-E7" to="-E9"/>
    <trip id="37" type="toy_car" depart="371.03" from="-E8" to="E7.61"/>
    <trip id="38" type="toy_car" depart="381.07" from="E9" to="E8"/>
    <trip id="39" type="toy_car" depart="388.64" from="E9" to="-E7.68"/>
    <trip id="40" type="toy_car" depart="398.71" from="-E7" to="-E9"/>
    <trip id="41" type="toy_car" depart="408.32" from="-E8" to="-E7.68"/>
    <trip id="42" type="toy_car" depart="420.15" from="E9" to="-E7.68"/>
    <trip id="43" type="toy_car" depart="429.42" from="E9" to="E8"/>
    <trip id="44" type="toy_car" depart="439.26" from="-E7" to="-E7.68"/>
    <trip id="45" type="toy_car" depart="450.26" from="-E8" to="E7.61"/>
    <trip id="46" type="toy_car" depart="458.75" from="E9" to="-E7.68"/>
    <trip id="47" type="toy_car" depart="469.28" from="-E7" to="-E7.68"/>
    <trip id="48" type="toy_car" depart="479.44" from="E9" to="-E7.68"/>
    <trip id="49" type="toy_car" depart="489.20" from="-E8" to="-E7.68"/>
    <trip id="50" type="toy_car" depart="500.50" from="-E8" to="E7.61"/>
    <trip id="51" type="toy_car" depart="511.61" from="E9" to="-E7.68"/>
    <trip id="52" type="toy_car" depart="520.32" from="E7" to="E8"/>
    <trip id="53" type="toy_car" depart="530.47" from="-E8" to="E7.61"/>
    <trip id="54" type="toy_car" depart="538.65" from="E9" to="-E7.68"/>
    <trip id="55" type="toy_car" depart="549.31" from="E9" to="E7.61"/>
    <trip id="56" type="toy_car" depart="560.03" from="E7" to="E8"/>
    <trip id="57" type="toy_car" depart="568.50" from="E7" to="E8"/>
    <trip id="58" type="toy_car" depart="580.36" from="E9" to="E7.61"/>
    <trip id="59" type="toy_car" depart="591.40" from="-E8" to="-E7.68"/>
    <trip id="60" type="toy_car" depart="600.46" from="E9" to="E8"/>
    <trip id="61" type="toy_car" depart="611.56" from="-E8" to="-E9"/>
    <trip id="62" type="toy_car" depart="620.46" from="E9" to="-E7.68"/>
    <trip id="63" type="toy_car" depart="628.63" from="E9" to="E7.61"/>
    <trip id="64" type="toy_car" depart="640.23" from="E7" to="E8"/>
    <trip id="65" type="toy_car" depart="651.43" from="E9" to="E7.61"/>
    <trip id="66" type="toy_car" depart="659.50" from="E9" to="E8"/>
    <trip id="67" type="toy_car" depart="669.08" from="-E8" to="-E7.68"/>
    <trip id="68" type="toy_car" depart="679.53" from="E7" to="E8"/>
    <trip id="69" type="toy_car" depart="689.45" from="E9" to="-E7.68"/>
    <trip id="70" type="toy_car" depart="700.25" from="-E7" to="E8"/>
</routes>