<?xml version="1.0" encoding="UTF-8"?>

<routes xmlns:xsi="http://www.w3.org/2001/XMLSchema-instance" xsi:noNamespaceSchemaLocation="http://sumo.dlr.de/xsd/routes_file.xsd">
    <vType id="toy_car" maxSpeed="13.0" accel="1" decel="1"/>

    <trip id="0" type="toy_car" depart="0.26" from="E9" to="E7.61"/>
    <trip id="1" type="toy_car" depart="6.48" from="-E8" to="E7.61"/>
    <trip id="2" type="toy_car" depart="11.40" from="E9" to="E7.61"/>
    <trip id="3" type="toy_car" depart="17.64" from="E7" to="E7.61"/>
    <trip id="4" type="toy_car" depart="24.66" from="E7" to="E7.61"/>
    <trip id="5" type="toy_car" depart="29.98" from="E9" to="E7.61"/>
    <trip id="6" type="toy_car" depart="36.46" from="-E7" to="-E9"/>
    <trip id="7" type="toy_car" depart="41.60" from="-E8" to="-E7.68"/>
    <trip id="8" type="toy_car" depart="47.05" from="E7" to="E7.61"/>
    <trip id="9" type="toy_car" depart="53.15" from="-E7" to="E8"/>
    <trip id="10" type="toy_car" depart="59.31" from="-E8" to="-E7.68"/>
    <trip id="11" type="toy_car" depart="65.86" from="E7" to="E8"/>
    <trip id="12" type="toy_car" depart="72.96" from="-E7" to="-E7.68"/>
    <trip id="13" type="toy_car" depart="78.85" from="-E8" to="-E7.68"/>
    <trip id="14" type="toy_car" depart="83.62" from="-E7" to="E8"/>
    <trip id="15" type="toy_car" depart="90.56" from="E9" to="E7.61"/>
    <trip id="16" type="toy_car" depart="96.35" from="-E8" to="-E7.68"/>
    <trip id="17" type="toy_car" depart="102.07" from="E7" to="E8"/>
    <trip id="18" type="toy_car" depart="107.73" from="-E7" to="E8"/>
    <trip id="19" type="toy_car" depart="114.05" from="E9" to="E7.61"/>
    <trip id="20" type="toy_car" depart="119.74" from="E9" to="-E7.68"/>
    <trip id="21" type="toy_car" depart="126.90" from="-E8" to="E7.61"/>
    <trip id="22" type="toy_car" depart="132.94" from="E7" to="E7.61"/>
    <trip id="23" type="toy_car" depart="137.25" from="E7" to="-E9"/>
    <trip id="24" type="toy_car" depart="144.11" from="E9" to="E8"/>
    <trip id="25" type="toy_car" depart="150.01" from="-E7" to="E8"/>
    <trip id="26" type="toy_car" depart="156.66" from="-E7" to="-E9"/>
    <trip id="27" type="toy_car" depart="161.21" from="-E8" to="E7.61"/>
    <trip id="28" type="toy_car" depart="168.99" from="-E7" to="E8"/>
    <trip id="29" type="toy_car" depart="174.61" from="-E7" to="-E9"/>
    <trip id="30" type="toy_car" depart="179.03" from="-E8" to="-E9"/>
    <trip id="31" type="toy_car" depart="185.75" from="E7" to="E8"/>
    <trip id="32" type="toy_car" depart="191.09" from="-E8" to="-E7.68"/>
    <trip id="33" type="toy_car" depart="199.06" from="-E7" to="E8"/>
    <trip id="34" type="toy_car" depart="203.90" from="E7" to="E8"/>
    <trip id="35" type="toy_car" depart="210.52" from="E9" to="-E7.68"/>
    <trip id="36" type="toy_car" depart="215.00" from="E7" to="-E9"/>
    <trip id="37" type="toy_car" depart="221.68" from="E9" to="E7.61"/>
    <trip id="38" type="toy_car" depart="227.61" from="E7" to="E7.61"/>
    <trip id="39" type="toy_car" depart="233.14" from="E7" to="E7.61"/>
    <trip id="40" type="toy_car" depart="241.03" from="E9" to="E7.61"/>
    <trip id="41" type="toy_car" depart="245.04" from="E7" to="E7.61"/>
    <trip id="42" type="toy_car" depart="251.57" from="-E7" to="E8"/>
    <trip id="43" type="toy_car" depart="257.30" from="-E8" to="-E7.68"/>
    <trip id="44" type="toy_car" depart="264.68" from="E7" to="E7.61"/>
    <trip id="45" type="toy_car" depart="269.90" from="-E7" to="E8"/>
    <trip id="46" type="toy_car" depart="275.14" from="-E7" to="E8"/>
    <trip id="47" type="toy_car" depart="282.78" from="E9" to="-E7.68"/>
    <trip id="48" type="toy_car" depart="288.71" from="E7" to="E8"/>
    <trip id="49" type="toy_car" depart="295.04" from="E9" to="E8"/>
    <trip id="50" type="toy_car" depart="299.90" from="E7" to="E8"/>
    <trip id="51" type="toy_car" depart="306.42" from="E7" to="E8"/>
    <trip id="52" type="toy_car" depart="311.84" from="-E7" to="-E7.68"/>
    <trip id="53" type="toy_car" depart="317.78" from="E7" to="-E9"/>
    <trip id="54" type="toy_car" depart="323.74" from="-E8" to="-E7.68"/>
    <trip id="55" type="toy_car" depart="330.59" from="E7" to="E8"/>
    <trip id="56" type="toy_car" depart="336.23" from="-E8" to="E7.61"/>
    <trip id="57" type="toy_car" depart="342.88" from="-E7" to="E8"/>
    <trip id="58" type="toy_car" depart="347.28" from="-E7" to="-E9"/>
    <trip id="59" type="toy_car" depart="353.06" from="E9" to="E7.61"/>
    <trip id="60" type="toy_car" depart="359.80" from="-E7" to="E8"/>
    <trip id="61" type="toy_car" depart="366.20" from="-E7" to="-E7.68"/>
    <trip id="62" type="toy_car" depart="371.91" from="-E7" to="-E9"/>
    <trip id="63" type="toy_car" depart="377.26" from="E9" to="E8"/>
    <trip id="64" type="toy_car" depart="384.42" from="-E8" to="E7.61"/>
    <trip id="65" type="toy_car" depart="390.25" from="E7" to="E7.61"/>
    <trip id="66" type="toy_car" depart="395.79" from="-E7" to="-E9"/>
    <trip id="67" type="toy_car" depart="401.57" from="-E7" to="E8"/>
    <trip id="68" type="toy_car" depart="407.32" from="-E7" to="E8"/>
    <trip id="69" type="toy_car" depart="413.04" from="-E7" to="E8"/>
    <trip id="70" type="toy_car" depart="420.50" from="E7" to="E7.61"/>
    <trip id="71" type="toy_car" depart="426.49" from="E9" to="-E7.68"/>
    <trip id="72" type="toy_car" depart="432.65" from="E9" to="E7.61"/>
    <trip id="73" type="toy_car" depart="438.40" from="-E7" to="E8"/>
    <trip id="74" type="toy_car" depart="443.37" from="-E7" to="-E9"/>
    <trip id="75" type="toy_car" depart="450.36" from="E7" to="E8"/>
    <trip id="76" type="toy_car" depart="455.80" from="E7" to="E7.61"/>
    <trip id="77" type="toy_car" depart="462.55" from="-E8" to="E7.61"/>
    <trip id="78" type="toy_car" depart="468.26" from="E9" to="E8"/>
    <trip id="79" type="toy_car" depart="474.37" from="-E8" to="-E7.68"/>
    <trip id="80" type="toy_car" depart="480.43" from="-E7" to="-E9"/>
    <trip id="81" type="toy_car" depart="486.46" from="-E7" to="-E7.68"/>
    <trip id="82" type="toy_car" depart="492.92" from="E9" to="E7.61"/>
    <trip id="83" type="toy_car" depart="497.80" from="E7" to="E7.61"/>
    <trip id="84" type="toy_car" depart="502.98" from="E7" to="E7.61"/>
    <trip id="85" type="toy_car" depart="509.07" from="E7" to="E7.61"/>
    <trip id="86" type="toy_car" depart="515.60" from="E7" to="E7.61"/>
    <trip id="87" type="toy_car" depart="522.71" from="E7" to="E8"/>
    <trip id="88" type="toy_car" depart="526.95" from="-E7" to="E8"/>
    <trip id="89" type="toy_car" depart="533.31" from="E9" to="-E7.68"/>
    <trip id="90" type="toy_car" depart="540.41" from="E7" to="E8"/>
    <trip id="91" type="toy_car" depart="545.16" from="E9" to="E7.61"/>
    <trip id="92" type="toy_car" depart="552.92" from="-E7" to="-E7.68"/>
    <trip id="93" type="toy_car" depart="557.21" from="E7" to="-E9"/>
    <trip id="94" type="toy_car" depart="563.79" from="-E7" to="-E7.68"/>
    <trip id="95" type="toy_car" depart="569.45" from="-E8" to="-E7.68"/>
    <trip id="96" type="toy_car" depart="576.61" from="-E7" to="-E7.68"/>
    <trip id="97" type="toy_car" depart="581.39" from="E7" to="E7.61"/>
    <trip id="98" type="toy_car" depart="588.44" from="-E8" to="-E9"/>
    <trip id="99" type="toy_car" depart="594.85" from="E7" to="E8"/>
    <trip id="100" type="toy_car" depart="600.73" from="-E8" to="E7.61"/>
    <trip id="101" type="toy_car" depart="606.01" from="-E7" to="-E7.68"/>
    <trip id="102" type="toy_car" depart="612.42" from="-E7" to="-E9"/>
    <trip id="103" type="toy_car" depart="617.91" from="E9" to="-E7.68"/>
    <trip id="104" type="toy_car" depart="624.69" from="-E8" to="E7.61"/>
    <trip id="105" type="toy_car" depart="629.65" from="-E8" to="E7.61"/>
    <trip id="106" type="toy_car" depart="635.01" from="E9" to="E7.61"/>
    <trip id="107" type="toy_car" depart="641.69" from="E9" to="E8"/>
    <trip id="108" type="toy_car" depart="647.36" from="E9" to="E8"/>
    <trip id="109" type="toy_car" depart="654.26" from="E7" to="E8"/>
    <trip id="110" type="toy_car" depart="659.54" from="E7" to="E8"/>
    <trip id="111" type="toy_car" depart="665.40" from="-E8" to="-E9"/>
    <trip id="112" type="toy_car" depart="672.97" from="-E7" to="E8"/>
    <trip id="113" type="toy_car" depart="677.53" from="E7" to="E8"/>
    <trip id="114" type="toy_car" depart="683.03" from="E7" to="E7.61"/>
    <trip id="115" type="toy_car" depart="689.90" from="-E7" to="-E9"/>
    <trip id="116" type="toy_car" depart="696.25" from="-E7" to="E8"/>
</routes>