<?xml version="1.0" encoding="UTF-8"?>

<routes xmlns:xsi="http://www.w3.org/2001/XMLSchema-instance" xsi:noNamespaceSchemaLocation="http://sumo.dlr.de/xsd/routes_file.xsd">
    <vType id="toy_car" maxSpeed="13.0" accel="1" decel="1"/>

    <trip id="0" type="toy_car" depart="0.00" from="E7" to="E7.61"/>
    <trip id="1" type="toy_car" depart="9.52" from="-E8" to="E7.61"/>
    <trip id="2" type="toy_car" depart="19.87" from="E9" to="-E7.68"/>
    <trip id="3" type="toy_car" depart="31.15" from="-E8" to="-E9"/>
    <trip id="4" type="toy_car" depart="40.31" from="-E8" to="-E9"/>
    <trip id="5" type="toy_car" depart="49.04" from="-E8" to="-E7.68"/>
    <trip id="6" type="toy_car" depart="61.19" from="-E8" to="E7.61"/>
    <trip id="7" type="toy_car" depart="71.63" from="-E8" to="E7.61"/>
    <trip id="8" type="toy_car" depart="81.64" from="-E8" to="-E9"/>
    <trip id="9" type="toy_car" depart="91.13" from="-E7" to="-E7.68"/>
    <trip id="10" type="toy_car" depart="101.79" from="-E8" to="E7.61"/>
    <trip id="11" type="toy_car" depart="109.19" from="E9" to="E8"/>
    <trip id="12" type="toy_car" depart="120.81" from="-E8" to="E7.61"/>
    <trip id="13" type="toy_car" depart="131.46" from="-E7" to="-E7.68"/>
    <trip id="14" type="toy_car" depart="139.87" from="E9" to="E7.61"/>
    <trip id="15" type="toy_car" depart="151.05" from="-E8" to="E7.61"/>
    <trip id="16" type="toy_car" depart="159.13" from="E9" to="E8"/>
    <trip id="17" type="toy_car" depart="170.94" from="-E8" to="-E7.68"/>
    <trip id="18" type="toy_car" depart="178.34" from="-E8" to="-E9"/>
    <trip id="19" type="toy_car" depart="191.11" from="E7" to="E8"/>
    <trip id="20" type="toy_car" depart="200.96" from="E7" to="E8"/>
    <trip id="21" type="toy_car" depart="208.22" from="E7" to="-E9"/>
    <trip id="22" type="toy_car" depart="219.78" from="-E7" to="-E9"/>
    <trip id="23" type="toy_car" depart="231.55" from="-E8" to="-E9"/>
    <trip id="24" type="toy_car" depart="240.50" from="-E8" to="E7.61"/>
    <trip id="25" type="toy_car" depart="251.62" from="-E8" to="-E9"/>
    <trip id="26" type="toy_car" depart="259.40" from="-E7" to="-E9"/>
    <trip id="27" type="toy_car" depart="269.01" from="-E7" to="-E9"/>
    <trip id="28" type="toy_car" depart="281.12" from="E9" to="-E7.68"/>
    <trip id="29" type="toy_car" depart="290.79" from="-E8" to="E7.61"/>
    <trip id="30" type="toy_car" depart="299.82" from="-E8" to="-E9"/>
    <trip id="31" type="toy_car" depart="309.73" from="E9" to="E7.61"/>
    <trip id="32" type="toy_car" depart="321.24" from="E9" to="-E7.68"/>
    <trip id="33" type="toy_car" depart="330.52" from="E7" to="E7.61"/>
    <trip id="34" type="toy_car" depart="338.50" from="-E7" to="-E9"/>
    <trip id="35" type="toy_car" depart="349.47" from="E9" to="-E7.68"/>
    <trip id="36" type="toy_car" depart="360.78" from="-E8" to="-E7.68"/>
    <trip id="37" type="toy_car" depart="369.38" from="E9" to="-E7.68"/>
    <trip id="38" type="toy_car" depart="380.47" from="E7" to="-E9"/>
    <trip id="39" type="toy_car" depart="390.95" from="-E8" to="-E9"/>
    <trip id="40" type="toy_car" depart="399.59" from="-E7" to="-E7.68"/>
    <trip id="41" type="toy_car" depart="408.49" from="-E7" to="-E9"/>
    <trip id="42" type="toy_car" depart="419.33" from="-E7" to="-E7.68"/>
    <trip id="43" type="toy_car" depart="430.74" from="-E8" to="E7.61"/>
    <trip id="44" type="toy_car" depart="440.14" from="E7" to="E8"/>
    <trip id="45" type="toy_car" depart="451.05" from="E7" to="E7.61"/>
    <trip id="46" type="toy_car" depart="461.11" from="E7" to="-E9"/>
    <trip id="47" type="toy_car" depart="470.05" from="E9" to="-E7.68"/>
    <trip id="48" type="toy_car" depart="480.52" from="E9" to="-E7.68"/>
    <trip id="49" type="toy_car" depart="491.45" from="-E8" to="E7.61"/>
    <trip id="50" type="toy_car" depart="498.94" from="-E7" to="E8"/>
    <trip id="51" type="toy_car" depart="510.18" from="E7" to="-E9"/>
    <trip id="52" type="toy_car" depart="520.63" from="-E8" to="-E9"/>
    <trip id="53" type="toy_car" depart="531.01" from="E7" to="E7.61"/>
    <trip id="54" type="toy_car" depart="539.79" from="-E8" to="-E7.68"/>
    <trip id="55" type="toy_car" depart="550.82" from="-E7" to="-E7.68"/>
    <trip id="56" type="toy_car" depart="560.45" from="-E7" to="-E7.68"/>
    <trip id="57" type="toy_car" depart="570.16" from="-E8" to="-E7.68"/>
    <trip id="58" type="toy_car" depart="579.17" from="E9" to="-E7.68"/>
    <trip id="59" type="toy_car" depart="589.44" from="E7" to="E8"/>
    <trip id="60" type="toy_car" depart="601.76" from="-E8" to="E7.61"/>
    <trip id="61" type="toy_car" depart="610.61" from="-E8" to="-E9"/>
    <trip id="62" type="toy_car" depart="618.90" from="E9" to="E7.61"/>
    <trip id="63" type="toy_car" depart="630.58" from="-E8" to="-E7.68"/>
    <trip id="64" type="toy_car" depart="638.75" from="E9" to="E7.61"/>
    <trip id="65" type="toy_car" depart="649.49" from="E7" to="E8"/>
    <trip id="66" type="toy_car" depart="660.49" from="-E8" to="-E9"/>
    <trip id="67" type="toy_car" depart="670.61" from="-E8" to="-E7.68"/>
    <trip id="68" type="toy_car" depart="679.87" from="-E8" to="E7.61"/>
    <trip id="69" type="toy_car" depart="689.97" from="-E8" to="-E7.68"/>
    <trip id="70" type="toy_car" depart="700.19" from="E7" to="E8"/>
</routes>