<?xml version="1.0" encoding="UTF-8"?>

<routes xmlns:xsi="http://www.w3.org/2001/XMLSchema-instance" xsi:noNamespaceSchemaLocation="http://sumo.dlr.de/xsd/routes_file.xsd">
    <vType id="toy_car" maxSpeed="13.0" accel="1" decel="1"/>

    <trip id="0" type="toy_car" depart="0.86" from="-E8" to="E7.61"/>
    <trip id="1" type="toy_car" depart="4.94" from="-E8" to="-E9"/>
    <trip id="2" type="toy_car" depart="11.26" from="E7" to="E7.61"/>
    <trip id="3" type="toy_car" depart="18.27" from="E7" to="-E9"/>
    <trip id="4" type="toy_car" depart="25.04" from="E9" to="-E7.68"/>
    <trip id="5" type="toy_car" depart="29.55" from="E7" to="-E9"/>
    <trip id="6" type="toy_car" depart="37.07" from="E7" to="-E9"/>
    <trip id="7" type="toy_car" depart="42.24" from="-E8" to="-E9"/>
    <trip id="8" type="toy_car" depart="47.99" from="E7" to="E7.61"/>
    <trip id="9" type="toy_car" depart="53.32" from="E7" to="-E9"/>
    <trip id="10" type="toy_car" depart="60.22" from="-E7" to="-E9"/>
    <trip id="11" type="toy_car" depart="65.55" from="E7" to="E7.61"/>
    <trip id="12" type="toy_car" depart="71.47" from="E9" to="-E7.68"/>
    <trip id="13" type="toy_car" depart="77.16" from="E9" to="-E7.68"/>
    <trip id="14" type="toy_car" depart="84.19" from="E9" to="-E7.68"/>
    <trip id="15" type="toy_car" depart="90.11" from="E7" to="E8"/>
    <trip id="16" type="toy_car" depart="96.06" from="-E8" to="-E9"/>
    <trip id="17" type="toy_car" depart="101.05" from="E9" to="E7.61"/>
    <trip id="18" type="toy_car" depart="107.07" from="-E8" to="-E7.68"/>
    <trip id="19" type="toy_car" depart="114.53" from="E7" to="E8"/>
    <trip id="20" type="toy_car" depart="120.33" from="-E8" to="-E9"/>
    <trip id="21" type="toy_car" depart="126.44" from="E7" to="-E9"/>
    <trip id="22" type="toy_car" depart="132.46" from="E7" to="E7.61"/>
    <trip id="23" type="toy_car" depart="137.45" from="-E7" to="E8"/>
    <trip id="24" type="toy_car" depart="143.63" from="-E8" to="-E9"/>
    <trip id="25" type="toy_car" depart="150.07" from="-E7" to="-E7.68"/>
    <trip id="26" type="toy_car" depart="155.90" from="E7" to="E8"/>
    <trip id="27" type="toy_car" depart="161.34" from="-E7" to="-E9"/>
    <trip id="28" type="toy_car" depart="168.99" from="E9" to="E8"/>
    <trip id="29" type="toy_car" depart="173.74" from="-E8" to="-E7.68"/>
    <trip id="30" type="toy_car" depart="179.42" from="-E7" to="-E7.68"/>
    <trip id="31" type="toy_car" depart="185.58" from="-E7" to="-E9"/>
    <trip id="32" type="toy_car" depart="191.00" from="E7" to="E8"/>
    <trip id="33" type="toy_car" depart="198.93" from="E7" to="E8"/>
    <trip id="34" type="toy_car" depart="203.97" from="-E7" to="-E9"/>
    <trip id="35" type="toy_car" depart="210.75" from="-E8" to="-E9"/>
    <trip id="36" type="toy_car" depart="215.66" from="-E7" to="E8"/>
    <trip id="37" type="toy_car" depart="222.56" from="-E7" to="-E9"/>
    <trip id="38" type="toy_car" depart="229.03" from="-E8" to="E7.61"/>
    <trip id="39" type="toy_car" depart="234.22" from="-E7" to="E8"/>
    <trip id="40" type="toy_car" depart="238.95" from="E7" to="E7.61"/>
    <trip id="41" type="toy_car" depart="247.04" from="-E8" to="-E7.68"/>
    <trip id="42" type="toy_car" depart="251.90" from="E7" to="-E9"/>
    <trip id="43" type="toy_car" depart="257.74" from="E9" to="-E7.68"/>
    <trip id="44" type="toy_car" depart="264.42" from="E7" to="E8"/>
    <trip id="45" type="toy_car" depart="269.07" from="E9" to="E8"/>
    <trip id="46" type="toy_car" depart="275.46" from="-E8" to="-E9"/>
    <trip id="47" type="toy_car" depart="280.93" from="E9" to="-E7.68"/>
    <trip id="48" type="toy_car" depart="287.57" from="E9" to="E7.61"/>
    <trip id="49" type="toy_car" depart="294.26" from="E9" to="E8"/>
    <trip id="50" type="toy_car" depart="300.86" from="E7" to="E7.61"/>
    <trip id="51" type="toy_car" depart="305.13" from="E7" to="-E9"/>
    <trip id="52" type="toy_car" depart="312.32" from="-E7" to="-E9"/>
    <trip id="53" type="toy_car" depart="317.37" from="E7" to="E7.61"/>
    <trip id="54" type="toy_car" depart="324.23" from="E7" to="E7.61"/>
    <trip id="55" type="toy_car" depart="330.61" from="-E8" to="-E7.68"/>
    <trip id="56" type="toy_car" depart="336.95" from="E9" to="E7.61"/>
    <trip id="57" type="toy_car" depart="341.39" from="E7" to="E7.61"/>
    <trip id="58" type="toy_car" depart="347.43" from="-E7" to="-E7.68"/>
    <trip id="59" type="toy_car" depart="353.21" from="E9" to="E7.61"/>
    <trip id="60" type="toy_car" depart="359.49" from="-E8" to="-E9"/>
    <trip id="61" type="toy_car" depart="365.20" from="-E7" to="-E9"/>
    <trip id="62" type="toy_car" depart="371.75" from="E7" to="-E9"/>
    <trip id="63" type="toy_car" depart="377.42" from="E9" to="E8"/>
    <trip id="64" type="toy_car" depart="383.85" from="E9" to="-E7.68"/>
    <trip id="65" type="toy_car" depart="389.32" from="-E8" to="-E9"/>
    <trip id="66" type="toy_car" depart="395.18" from="E7" to="E8"/>
    <trip id="67" type="toy_car" depart="401.01" from="E7" to="E8"/>
    <trip id="68" type="toy_car" depart="408.12" from="E7" to="E7.61"/>
    <trip id="69" type="toy_car" depart="414.59" from="E7" to="-E9"/>
    <trip id="70" type="toy_car" depart="419.78" from="E7" to="E7.61"/>
    <trip id="71" type="toy_car" depart="425.68" from="E7" to="-E9"/>
    <trip id="72" type="toy_car" depart="431.54" from="E7" to="-E9"/>
    <trip id="73" type="toy_car" depart="437.46" from="E9" to="-E7.68"/>
    <trip id="74" type="toy_car" depart="445.06" from="E9" to="E7.61"/>
    <trip id="75" type="toy_car" depart="450.53" from="-E8" to="-E9"/>
    <trip id="76" type="toy_car" depart="456.62" from="-E8" to="-E9"/>
    <trip id="77" type="toy_car" depart="462.73" from="E9" to="-E7.68"/>
    <trip id="78" type="toy_car" depart="467.48" from="E9" to="-E7.68"/>
    <trip id="79" type="toy_car" depart="474.24" from="E7" to="-E9"/>
    <trip id="80" type="toy_car" depart="479.44" from="E9" to="E8"/>
    <trip id="81" type="toy_car" depart="485.07" from="E7" to="-E9"/>
    <trip id="82" type="toy_car" depart="492.59" from="-E8" to="E7.61"/>
    <trip id="83" type="toy_car" depart="496.97" from="E7" to="E8"/>
    <trip id="84" type="toy_car" depart="503.83" from="-E8" to="-E9"/>
    <trip id="85" type="toy_car" depart="509.05" from="E9" to="E8"/>
    <trip id="86" type="toy_car" depart="515.98" from="E9" to="E7.61"/>
    <trip id="87" type="toy_car" depart="521.06" from="E9" to="E8"/>
    <trip id="88" type="toy_car" depart="527.13" from="E7" to="E8"/>
    <trip id="89" type="toy_car" depart="534.45" from="-E7" to="-E7.68"/>
    <trip id="90" type="toy_car" depart="540.24" from="E9" to="-E7.68"/>
    <trip id="91" type="toy_car" depart="546.93" from="-E8" to="-E7.68"/>
    <trip id="92" type="toy_car" depart="552.29" from="E9" to="E7.61"/>
    <trip id="93" type="toy_car" depart="558.90" from="E7" to="E8"/>
    <trip id="94" type="toy_car" depart="564.48" from="-E7" to="-E9"/>
    <trip id="95" type="toy_car" depart="569.81" from="E7" to="E8"/>
    <trip id="96" type="toy_car" depart="576.81" from="E9" to="-E7.68"/>
    <trip id="97" type="toy_car" depart="581.28" from="E9" to="E7.61"/>
    <trip id="98" type="toy_car" depart="586.93" from="-E7" to="-E9"/>
    <trip id="99" type="toy_car" depart="593.44" from="E7" to="E7.61"/>
    <trip id="100" type="toy_car" depart="599.52" from="E7" to="-E9"/>
    <trip id="101" type="toy_car" depart="605.80" from="E7" to="E8"/>
    <trip id="102" type="toy_car" depart="610.94" from="-E7" to="-E9"/>
    <trip id="103" type="toy_car" depart="617.53" from="-E8" to="-E9"/>
    <trip id="104" type="toy_car" depart="623.80" from="E7" to="-E9"/>
    <trip id="105" type="toy_car" depart="630.64" from="E9" to="E8"/>
    <trip id="106" type="toy_car" depart="635.47" from="E9" to="E7.61"/>
    <trip id="107" type="toy_car" depart="641.30" from="E7" to="-E9"/>
    <trip id="108" type="toy_car" depart="648.13" from="E7" to="-E9"/>
    <trip id="109" type="toy_car" depart="654.56" from="E7" to="-E9"/>
    <trip id="110" type="toy_car" depart="660.79" from="E7" to="E7.61"/>
    <trip id="111" type="toy_car" depart="666.47" from="-E7" to="-E7.68"/>
    <trip id="112" type="toy_car" depart="671.36" from="-E7" to="-E7.68"/>
    <trip id="113" type="toy_car" depart="678.66" from="E7" to="E7.61"/>
    <trip id="114" type="toy_car" depart="683.59" from="-E8" to="E7.61"/>
    <trip id="115" type="toy_car" depart="689.81" from="-E8" to="-E7.68"/>
    <trip id="116" type="toy_car" depart="695.66" from="E7" to="-E9"/>
</routes>