<?xml version="1.0" encoding="UTF-8"?>

<routes xmlns:xsi="http://www.w3.org/2001/XMLSchema-instance" xsi:noNamespaceSchemaLocation="http://sumo.dlr.de/xsd/routes_file.xsd">
    <vType id="toy_car" maxSpeed="13.0" accel="1" decel="1"/>

    <trip id="0" type="toy_car" depart="0.62" from="E9" to="E7.61"/>
    <trip id="1" type="toy_car" depart="6.05" from="E7" to="E7.61"/>
    <trip id="2" type="toy_car" depart="11.00" from="E9" to="-E7.68"/>
    <trip id="3" type="toy_car" depart="18.64" from="E9" to="E7.61"/>
    <trip id="4" type="toy_car" depart="24.87" from="E9" to="E8"/>
    <trip id="5" type="toy_car" depart="30.33" from="E9" to="-E7.68"/>
    <trip id="6" type="toy_car" depart="35.58" from="E9" to="E7.61"/>
    <trip id="7" type="toy_car" depart="42.40" from="-E7" to="E8"/>
    <trip id="8" type="toy_car" depart="48.77" from="E9" to="E7.61"/>
    <trip id="9" type="toy_car" depart="54.91" from="E9" to="-E7.68"/>
    <trip id="10" type="toy_car" depart="59.00" from="E7" to="-E9"/>
    <trip id="11" type="toy_car" depart="66.19" from="E9" to="-E7.68"/>
    <trip id="12" type="toy_car" depart="72.34" from="-E7" to="E8"/>
    <trip id="13" type="toy_car" depart="77.26" from="E7" to="-E9"/>
    <trip id="14" type="toy_car" depart="83.14" from="-E7" to="E8"/>
    <trip id="15" type="toy_car" depart="90.24" from="E9" to="E8"/>
    <trip id="16" type="toy_car" depart="96.79" from="-E7" to="-E7.68"/>
    <trip id="17" type="toy_car" depart="102.41" from="E9" to="E7.61"/>
    <trip id="18" type="toy_car" depart="107.73" from="-E7" to="E8"/>
    <trip id="19" type="toy_car" depart="113.21" from="E7" to="-E9"/>
    <trip id="20" type="toy_car" depart="120.00" from="E7" to="E8"/>
    <trip id="21" type="toy_car" depart="125.07" from="E9" to="-E7.68"/>
    <trip id="22" type="toy_car" depart="131.45" from="E7" to="-E9"/>
    <trip id="23" type="toy_car" depart="137.56" from="-E8" to="-E9"/>
    <trip id="24" type="toy_car" depart="144.79" from="-E7" to="-E7.68"/>
    <trip id="25" type="toy_car" depart="149.90" from="-E7" to="-E7.68"/>
    <trip id="26" type="toy_car" depart="154.94" from="-E8" to="-E9"/>
    <trip id="27" type="toy_car" depart="161.91" from="E9" to="E8"/>
    <trip id="28" type="toy_car" depart="167.56" from="E7" to="E8"/>
    <trip id="29" type="toy_car" depart="174.68" from="-E8" to="-E9"/>
    <trip id="30" type="toy_car" depart="180.98" from="E9" to="E7.61"/>
    <trip id="31" type="toy_car" depart="186.00" from="-E8" to="E7.61"/>
    <trip id="32" type="toy_car" depart="192.71" from="-E8" to="E7.61"/>
    <trip id="33" type="toy_car" depart="197.30" from="E9" to="E8"/>
    <trip id="34" type="toy_car" depart="204.24" from="-E8" to="-E7.68"/>
    <trip id="35" type="toy_car" depart="209.09" from="E9" to="E7.61"/>
    <trip id="36" type="toy_car" depart="216.05" from="-E8" to="-E7.68"/>
    <trip id="37" type="toy_car" depart="221.07" from="-E8" to="-E9"/>
    <trip id="38" type="toy_car" depart="228.42" from="E9" to="E7.61"/>
    <trip id="39" type="toy_car" depart="234.65" from="E9" to="-E7.68"/>
    <trip id="40" type="toy_car" depart="239.08" from="E9" to="E8"/>
    <trip id="41" type="toy_car" depart="245.40" from="E9" to="-E7.68"/>
    <trip id="42" type="toy_car" depart="251.45" from="E9" to="E7.61"/>
    <trip id="43" type="toy_car" depart="257.55" from="-E8" to="-E9"/>
    <trip id="44" type="toy_car" depart="264.43" from="-E7" to="E8"/>
    <trip id="45" type="toy_car" depart="270.36" from="-E8" to="-E7.68"/>
    <trip id="46" type="toy_car" depart="276.49" from="E9" to="E8"/>
    <trip id="47" type="toy_car" depart="282.42" from="E9" to="E8"/>
    <trip id="48" type="toy_car" depart="287.15" from="E9" to="-E7.68"/>
    <trip id="49" type="toy_car" depart="293.24" from="E9" to="-E7.68"/>
    <trip id="50" type="toy_car" depart="300.13" from="-E8" to="E7.61"/>
    <trip id="51" type="toy_car" depart="305.28" from="-E7" to="E8"/>
    <trip id="52" type="toy_car" depart="311.61" from="E9" to="E7.61"/>
    <trip id="53" type="toy_car" depart="318.24" from="-E8" to="-E7.68"/>
    <trip id="54" type="toy_car" depart="324.45" from="-E7" to="-E7.68"/>
    <trip id="55" type="toy_car" depart="329.75" from="E9" to="E7.61"/>
    <trip id="56" type="toy_car" depart="335.53" from="-E7" to="-E7.68"/>
    <trip id="57" type="toy_car" depart="341.29" from="-E7" to="E8"/>
    <trip id="58" type="toy_car" depart="348.71" from="-E7" to="-E7.68"/>
    <trip id="59" type="toy_car" depart="353.23" from="E7" to="E8"/>
    <trip id="60" type="toy_car" depart="360.08" from="E9" to="E8"/>
    <trip id="61" type="toy_car" depart="365.03" from="E9" to="-E7.68"/>
    <trip id="62" type="toy_car" depart="371.31" from="-E8" to="-E7.68"/>
    <trip id="63" type="toy_car" depart="377.53" from="E9" to="-E7.68"/>
    <trip id="64" type="toy_car" depart="383.08" from="-E8" to="-E7.68"/>
    <trip id="65" type="toy_car" depart="388.97" from="E7" to="-E9"/>
    <trip id="66" type="toy_car" depart="395.71" from="E9" to="E8"/>
    <trip id="67" type="toy_car" depart="402.37" from="E9" to="-E7.68"/>
    <trip id="68" type="toy_car" depart="407.52" from="E9" to="-E7.68"/>
    <trip id="69" type="toy_car" depart="414.18" from="-E7" to="-E9"/>
    <trip id="70" type="toy_car" depart="419.08" from="-E7" to="-E7.68"/>
    <trip id="71" type="toy_car" depart="426.75" from="E9" to="-E7.68"/>
    <trip id="72" type="toy_car" depart="430.94" from="E9" to="E7.61"/>
    <trip id="73" type="toy_car" depart="437.10" from="-E7" to="-E7.68"/>
    <trip id="74" type="toy_car" depart="444.03" from="E9" to="E8"/>
    <trip id="75" type="toy_car" depart="450.22" from="-E7" to="E8"/>
    <trip id="76" type="toy_car" depart="457.08" from="-E7" to="-E7.68"/>
    <trip id="77" type="toy_car" depart="461.46" from="E9" to="E8"/>
    <trip id="78" type="toy_car" depart="467.94" from="-E7" to="-E7.68"/>
    <trip id="79" type="toy_car" depart="474.65" from="E9" to="E7.61"/>
    <trip id="80" type="toy_car" depart="479.84" from="-E7" to="-E7.68"/>
    <trip id="81" type="toy_car" depart="485.28" from="E9" to="E8"/>
    <trip id="82" type="toy_car" depart="491.00" from="-E7" to="-E9"/>
    <trip id="83" type="toy_car" depart="498.83" from="E9" to="E8"/>
    <trip id="84" type="toy_car" depart="503.44" from="E9" to="E7.61"/>
    <trip id="85" type="toy_car" depart="510.77" from="-E7" to="E8"/>
    <trip id="86" type="toy_car" depart="515.07" from="-E7" to="-E9"/>
    <trip id="87" type="toy_car" depart="521.85" from="E9" to="E7.61"/>
    <trip id="88" type="toy_car" depart="527.28" from="E7" to="-E9"/>
    <trip id="89" type="toy_car" depart="533.69" from="E9" to="E8"/>
    <trip id="90" type="toy_car" depart="539.72" from="E9" to="E7.61"/>
    <trip id="91" type="toy_car" depart="546.07" from="E9" to="E7.61"/>
    <trip id="92" type="toy_car" depart="552.42" from="E9" to="-E7.68"/>
    <trip id="93" type="toy_car" depart="557.72" from="-E8" to="E7.61"/>
    <trip id="94" type="toy_car" depart="563.95" from="-E7" to="-E9"/>
    <trip id="95" type="toy_car" depart="570.65" from="E7" to="-E9"/>
    <trip id="96" type="toy_car" depart="576.10" from="-E7" to="-E9"/>
    <trip id="97" type="toy_car" depart="581.66" from="-E7" to="-E7.68"/>
    <trip id="98" type="toy_car" depart="588.59" from="E7" to="E8"/>
    <trip id="99" type="toy_car" depart="594.85" from="-E7" to="-E7.68"/>
    <trip id="100" type="toy_car" depart="600.69" from="-E7" to="-E9"/>
    <trip id="101" type="toy_car" depart="605.53" from="E9" to="E8"/>
    <trip id="102" type="toy_car" depart="612.34" from="E9" to="-E7.68"/>
    <trip id="103" type="toy_car" depart="619.02" from="E7" to="E7.61"/>
    <trip id="104" type="toy_car" depart="623.82" from="-E8" to="E7.61"/>
    <trip id="105" type="toy_car" depart="630.84" from="E9" to="E7.61"/>
    <trip id="106" type="toy_car" depart="635.54" from="E9" to="E7.61"/>
    <trip id="107" type="toy_car" depart="640.96" from="-E7" to="-E7.68"/>
    <trip id="108" type="toy_car" depart="647.22" from="-E7" to="-E7.68"/>
    <trip id="109" type="toy_car" depart="654.49" from="-E8" to="-E7.68"/>
    <trip id="110" type="toy_car" depart="659.33" from="E9" to="-E7.68"/>
    <trip id="111" type="toy_car" depart="666.43" from="E9" to="E7.61"/>
    <trip id="112" type="toy_car" depart="671.03" from="E7" to="-E9"/>
    <trip id="113" type="toy_car" depart="677.57" from="E7" to="E7.61"/>
    <trip id="114" type="toy_car" depart="684.36" from="-E8" to="-E7.68"/>
    <trip id="115" type="toy_car" depart="690.62" from="E9" to="E8"/>
    <trip id="116" type="toy_car" depart="695.91" from="E9" to="E7.61"/>
</routes>