<?xml version="1.0" encoding="UTF-8"?>

<routes xmlns:xsi="http://www.w3.org/2001/XMLSchema-instance" xsi:noNamespaceSchemaLocation="http://sumo.dlr.de/xsd/routes_file.xsd">
    <vType id="toy_car" maxSpeed="13.0" accel="1" decel="1"/>

    <trip id="0" type="toy_car" depart="0.00" from="E7" to="-E9"/>
    <trip id="1" type="toy_car" depart="4.96" from="-E8" to="E7.61"/>
    <trip id="2" type="toy_car" depart="12.52" from="-E8" to="-E7.68"/>
    <trip id="3" type="toy_car" depart="18.30" from="-E8" to="-E7.68"/>
    <trip id="4" type="toy_car" depart="24.84" from="E9" to="-E7.68"/>
    <trip id="5" type="toy_car" depart="30.88" from="-E8" to="E7.61"/>
    <trip id="6" type="toy_car" depart="36.77" from="-E8" to="E7.61"/>
    <trip id="7" type="toy_car" depart="41.09" from="E7" to="E7.61"/>
    <trip id="8" type="toy_car" depart="48.10" from="E9" to="-E7.68"/>
    <trip id="9" type="toy_car" depart="54.97" from="E9" to="-E7.68"/>
    <trip id="10" type="toy_car" depart="59.46" from="E9" to="E7.61"/>
    <trip id="11" type="toy_car" depart="66.59" from="E7" to="E7.61"/>
    <trip id="12" type="toy_car" depart="72.99" from="E9" to="E8"/>
    <trip id="13" type="toy_car" depart="78.19" from="-E8" to="-E7.68"/>
    <trip id="14" type="toy_car" depart="83.22" from="-E8" to="E7.61"/>
    <trip id="15" type="toy_car" depart="90.48" from="-E8" to="E7.61"/>
    <trip id="16" type="toy_car" depart="95.11" from="E7" to="E7.61"/>
    <trip id="17" type="toy_car" depart="102.31" from="-E7" to="E8"/>
    <trip id="18" type="toy_car" depart="108.82" from="-E7" to="-E7.68"/>
    <trip id="19" type="toy_car" depart="115.02" from="-E7" to="E8"/>
    <trip id="20" type="toy_car" depart="119.37" from="-E8" to="E7.61"/>
    <trip id="21" type="toy_car" depart="126.18" from="E9" to="E7.61"/>
    <trip id="22" type="toy_car" depart="131.13" from="-E7" to="-E7.68"/>
    <trip id="23" type="toy_car" depart="137.33" from="-E7" to="-E7.68"/>
    <trip id="24" type="toy_car" depart="143.77" from="-E7" to="-E9"/>
    <trip id="25" type="toy_car" depart="150.93" from="E7" to="-E9"/>
    <trip id="26" type="toy_car" depart="156.16" from="-E7" to="E8"/>
    <trip id="27" type="toy_car" depart="162.70" from="E7" to="E7.61"/>
    <trip id="28" type="toy_car" depart="168.11" from="E9" to="E8"/>
    <trip id="29" type="toy_car" depart="174.90" from="-E7" to="E8"/>
    <trip id="30" type="toy_car" depart="179.05" from="-E7" to="-E7.68"/>
    <trip id="31" type="toy_car" depart="185.15" from="-E7" to="-E9"/>
    <trip id="32" type="toy_car" depart="192.36" from="E9" to="-E7.68"/>
    <trip id="33" type="toy_car" depart="198.80" from="-E8" to="-E7.68"/>
    <trip id="34" type="toy_car" depart="204.19" from="E7" to="E8"/>
    <trip id="35" type="toy_car" depart="209.43" from="E9" to="E8"/>
    <trip id="36" type="toy_car" depart="215.08" from="E9" to="E8"/>
    <trip id="37" type="toy_car" depart="222.22" from="-E8" to="E7.61"/>
    <trip id="38" type="toy_car" depart="228.08" from="-E7" to="E8"/>
    <trip id="39" type="toy_car" depart="235.05" from="-E7" to="-E9"/>
    <trip id="40" type="toy_car" depart="238.96" from="-E8" to="-E7.68"/>
    <trip id="41" type="toy_car" depart="245.46" from="-E8" to="-E9"/>
    <trip id="42" type="toy_car" depart="250.92" from="-E7" to="-E7.68"/>
    <trip id="43" type="toy_car" depart="257.36" from="-E8" to="-E9"/>
    <trip id="44" type="toy_car" depart="264.19" from="-E8" to="-E7.68"/>
    <trip id="45" type="toy_car" depart="270.62" from="-E8" to="E7.61"/>
    <trip id="46" type="toy_car" depart="276.10" from="-E8" to="E7.61"/>
    <trip id="47" type="toy_car" depart="281.45" from="E7" to="E8"/>
    <trip id="48" type="toy_car" depart="288.41" from="-E8" to="E7.61"/>
    <trip id="49" type="toy_car" depart="293.50" from="-E7" to="-E9"/>
    <trip id="50" type="toy_car" depart="299.80" from="E9" to="-E7.68"/>
    <trip id="51" type="toy_car" depart="306.40" from="-E7" to="E8"/>
    <trip id="52" type="toy_car" depart="311.36" from="E9" to="-E7.68"/>
    <trip id="53" type="toy_car" depart="317.88" from="-E7" to="-E9"/>
    <trip id="54" type="toy_car" depart="324.83" from="E7" to="E7.61"/>
    <trip id="55" type="toy_car" depart="330.67" from="E9" to="E8"/>
    <trip id="56" type="toy_car" depart="335.18" from="E7" to="-E9"/>
    <trip id="57" type="toy_car" depart="341.64" from="E7" to="E8"/>
    <trip id="58" type="toy_car" depart="347.23" from="-E8" to="-E9"/>
    <trip id="59" type="toy_car" depart="353.45" from="-E8" to="E7.61"/>
    <trip id="60" type="toy_car" depart="360.46" from="-E8" to="E7.61"/>
    <trip id="61" type="toy_car" depart="366.16" from="E9" to="E7.61"/>
    <trip id="62" type="toy_car" depart="372.95" from="E9" to="E7.61"/>
    <trip id="63" type="toy_car" depart="377.22" from="E9" to="E7.61"/>
    <trip id="64" type="toy_car" depart="384.93" from="-E8" to="-E9"/>
    <trip id="65" type="toy_car" depart="390.16" from="-E8" to="-E9"/>
    <trip id="66" type="toy_car" depart="395.83" from="-E8" to="-E9"/>
    <trip id="67" type="toy_car" depart="401.92" from="E7" to="E8"/>
    <trip id="68" type="toy_car" depart="408.05" from="E7" to="E7.61"/>
    <trip id="69" type="toy_car" depart="414.24" from="-E7" to="-E7.68"/>
    <trip id="70" type="toy_car" depart="419.15" from="E7" to="-E9"/>
    <trip id="71" type="toy_car" depart="425.01" from="E7" to="-E9"/>
    <trip id="72" type="toy_car" depart="431.25" from="E7" to="E7.61"/>
    <trip id="73" type="toy_car" depart="437.67" from="-E8" to="E7.61"/>
    <trip id="74" type="toy_car" depart="444.03" from="-E8" to="E7.61"/>
    <trip id="75" type="toy_car" depart="449.20" from="-E8" to="E7.61"/>
    <trip id="76" type="toy_car" depart="456.31" from="E9" to="E7.61"/>
    <trip id="77" type="toy_car" depart="462.89" from="E7" to="-E9"/>
    <trip id="78" type="toy_car" depart="467.63" from="-E8" to="-E9"/>
    <trip id="79" type="toy_car" depart="473.19" from="-E8" to="-E7.68"/>
    <trip id="80" type="toy_car" depart="480.84" from="-E7" to="-E7.68"/>
    <trip id="81" type="toy_car" depart="485.95" from="-E7" to="-E7.68"/>
    <trip id="82" type="toy_car" depart="492.71" from="E9" to="-E7.68"/>
    <trip id="83" type="toy_car" depart="497.89" from="-E7" to="E8"/>
    <trip id="84" type="toy_car" depart="504.08" from="E7" to="E7.61"/>
    <trip id="85" type="toy_car" depart="510.80" from="-E7" to="-E9"/>
    <trip id="86" type="toy_car" depart="515.95" from="E7" to="E7.61"/>
    <trip id="87" type="toy_car" depart="523.03" from="-E8" to="-E9"/>
    <trip id="88" type="toy_car" depart="528.21" from="-E8" to="E7.61"/>
    <trip id="89" type="toy_car" depart="534.49" from="E7" to="E7.61"/>
    <trip id="90" type="toy_car" depart="539.71" from="-E8" to="-E7.68"/>
    <trip id="91" type="toy_car" depart="544.95" from="-E7" to="-E9"/>
    <trip id="92" type="toy_car" depart="552.37" from="-E7" to="-E7.68"/>
    <trip id="93" type="toy_car" depart="557.54" from="E9" to="-E7.68"/>
    <trip id="94" type="toy_car" depart="564.57" from="-E8" to="E7.61"/>
    <trip id="95" type="toy_car" depart="569.43" from="-E8" to="-E9"/>
    <trip id="96" type="toy_car" depart="576.73" from="-E8" to="-E9"/>
    <trip id="97" type="toy_car" depart="581.54" from="-E8" to="-E7.68"/>
    <trip id="98" type="toy_car" depart="588.65" from="E7" to="-E9"/>
    <trip id="99" type="toy_car" depart="594.01" from="-E7" to="-E7.68"/>
    <trip id="100" type="toy_car" depart="599.09" from="-E8" to="-E9"/>
    <trip id="101" type="toy_car" depart="605.65" from="-E8" to="-E7.68"/>
    <trip id="102" type="toy_car" depart="611.91" from="E9" to="-E7.68"/>
    <trip id="103" type="toy_car" depart="617.05" from="E7" to="E8"/>
    <trip id="104" type="toy_car" depart="623.02" from="E7" to="-E9"/>
    <trip id="105" type="toy_car" depart="629.79" from="E7" to="-E9"/>
    <trip id="106" type="toy_car" depart="635.94" from="E7" to="E8"/>
    <trip id="107" type="toy_car" depart="642.37" from="E7" to="E7.61"/>
    <trip id="108" type="toy_car" depart="647.21" from="-E7" to="-E7.68"/>
    <trip id="109" type="toy_car" depart="655.01" from="-E8" to="-E9"/>
    <trip id="110" type="toy_car" depart="659.05" from="-E7" to="-E7.68"/>
    <trip id="111" type="toy_car" depart="665.85" from="-E8" to="-E7.68"/>
    <trip id="112" type="toy_car" depart="672.20" from="-E8" to="-E9"/>
    <trip id="113" type="toy_car" depart="678.55" from="-E7" to="E8"/>
    <trip id="114" type="toy_car" depart="683.61" from="-E7" to="-E9"/>
    <trip id="115" type="toy_car" depart="690.55" from="E9" to="-E7.68"/>
    <trip id="116" type="toy_car" depart="696.82" from="E7" to="E8"/>
</routes>