<?xml version="1.0" encoding="UTF-8"?>

<routes xmlns:xsi="http://www.w3.org/2001/XMLSchema-instance" xsi:noNamespaceSchemaLocation="http://sumo.dlr.de/xsd/routes_file.xsd">
    <vType id="toy_car" maxSpeed="13.0" accel="1" decel="1"/>

    <trip id="0" type="toy_car" depart="1.00" from="-E7" to="-E9"/>
    <trip id="1" type="toy_car" depart="2.00" from="E9" to="-E7.68"/>
    <trip id="2" type="toy_car" depart="3.00" from="E9" to="E8"/>
    <trip id="3" type="toy_car" depart="4.00" from="-E7" to="E8"/>
    <trip id="4" type="toy_car" depart="5.00" from="-E8" to="E7.61"/>
    <trip id="5" type="toy_car" depart="6.00" from="-E8" to="-E9"/>
    <trip id="6" type="toy_car" depart="7.00" from="E7" to="E8"/>
    <trip id="7" type="toy_car" depart="8.00" from="-E7" to="-E7.68"/>
    <trip id="8" type="toy_car" depart="9.00" from="E9" to="E7.61"/>
    <trip id="9" type="toy_car" depart="10.00" from="E7" to="E7.61"/>
    <trip id="10" type="toy_car" depart="11.00" from="E7" to="-E9"/>
    <trip id="11" type="toy_car" depart="12.00" from="-E8" to="-E7.68"/>

    <trip id="12" type="toy_car" depart="13.00" from="-E7" to="-E9"/>
    <trip id="13" type="toy_car" depart="14.00" from="E9" to="-E7.68"/>
    <trip id="14" type="toy_car" depart="15.00" from="E9" to="E8"/>
    <trip id="15" type="toy_car" depart="16.00" from="-E7" to="E8"/>
    <trip id="16" type="toy_car" depart="17.00" from="-E8" to="E7.61"/>
    <trip id="17" type="toy_car" depart="18.00" from="-E8" to="-E9"/>
    <trip id="18" type="toy_car" depart="19.00" from="E7" to="E8"/>
    <trip id="19" type="toy_car" depart="20.00" from="-E7" to="-E7.68"/>
    <trip id="20" type="toy_car" depart="21.00" from="E9" to="E7.61"/>
    <trip id="21" type="toy_car" depart="22.00" from="E7" to="E7.61"/>
    <trip id="22" type="toy_car" depart="23.00" from="E7" to="-E9"/>
    <trip id="23" type="toy_car" depart="24.00" from="-E8" to="-E7.68"/>

    <trip id="24" type="toy_car" depart="25.00" from="-E7" to="-E9"/>
    <trip id="25" type="toy_car" depart="26.00" from="E9" to="-E7.68"/>
    <trip id="26" type="toy_car" depart="27.00" from="E9" to="E8"/>
    <trip id="27" type="toy_car" depart="28.00" from="-E7" to="E8"/>
    <trip id="28" type="toy_car" depart="29.00" from="-E8" to="E7.61"/>
    <trip id="29" type="toy_car" depart="30.00" from="-E8" to="-E9"/>
    <trip id="30" type="toy_car" depart="31.00" from="E7" to="E8"/>
    <trip id="31" type="toy_car" depart="32.00" from="-E7" to="-E7.68"/>
    <trip id="32" type="toy_car" depart="33.00" from="E9" to="E7.61"/>
    <trip id="33" type="toy_car" depart="34.00" from="E7" to="E7.61"/>
    <trip id="34" type="toy_car" depart="35.00" from="E7" to="-E9"/>
    <trip id="35" type="toy_car" depart="36.00" from="-E8" to="-E7.68"/>

    <trip id="36" type="toy_car" depart="37.00" from="-E7" to="-E9"/>
    <trip id="37" type="toy_car" depart="38.00" from="E9" to="-E7.68"/>
    <trip id="38" type="toy_car" depart="39.00" from="E9" to="E8"/>
    <trip id="39" type="toy_car" depart="40.00" from="-E7" to="E8"/>
    <trip id="40" type="toy_car" depart="41.00" from="-E8" to="E7.61"/>
    <trip id="41" type="toy_car" depart="42.00" from="-E8" to="-E9"/>
    <trip id="42" type="toy_car" depart="43.00" from="E7" to="E8"/>
    <trip id="43" type="toy_car" depart="44.00" from="-E7" to="-E7.68"/>
    <trip id="44" type="toy_car" depart="45.00" from="E9" to="E7.61"/>
    <trip id="45" type="toy_car" depart="46.00" from="E7" to="E7.61"/>
    <trip id="46" type="toy_car" depart="47.00" from="E7" to="-E9"/>
    <trip id="47" type="toy_car" depart="48.00" from="-E8" to="-E7.68"/>

    <trip id="48" type="toy_car" depart="49.00" from="-E7" to="-E9"/>
    <trip id="49" type="toy_car" depart="50.00" from="E9" to="-E7.68"/>
    <trip id="50" type="toy_car" depart="51.00" from="E9" to="E8"/>
    <trip id="51" type="toy_car" depart="52.00" from="-E7" to="E8"/>
    <trip id="52" type="toy_car" depart="53.00" from="-E8" to="E7.61"/>
    <trip id="53" type="toy_car" depart="54.00" from="-E8" to="-E9"/>
    <trip id="54" type="toy_car" depart="55.00" from="E7" to="E8"/>
    <trip id="55" type="toy_car" depart="56.00" from="-E7" to="-E7.68"/>
    <trip id="56" type="toy_car" depart="57.00" from="E9" to="E7.61"/>
    <trip id="57" type="toy_car" depart="58.00" from="E7" to="E7.61"/>
    <trip id="58" type="toy_car" depart="59.00" from="E7" to="-E9"/>
    <trip id="59" type="toy_car" depart="60.00" from="-E8" to="-E7.68"/>

    <trip id="60" type="toy_car" depart="61.00" from="-E7" to="-E9"/>
    <trip id="61" type="toy_car" depart="62.00" from="E9" to="-E7.68"/>
    <trip id="62" type="toy_car" depart="63.00" from="E9" to="E8"/>
    <trip id="63" type="toy_car" depart="64.00" from="-E7" to="E8"/>
    <trip id="64" type="toy_car" depart="65.00" from="-E8" to="E7.61"/>
    <trip id="65" type="toy_car" depart="66.00" from="-E8" to="-E9"/>
    <trip id="66" type="toy_car" depart="67.00" from="E7" to="E8"/>
    <trip id="67" type="toy_car" depart="68.00" from="-E7" to="-E7.68"/>
    <trip id="68" type="toy_car" depart="69.00" from="E9" to="E7.61"/>
    <trip id="69" type="toy_car" depart="70.00" from="E7" to="E7.61"/>
    <trip id="70" type="toy_car" depart="71.00" from="E7" to="-E9"/>
    <trip id="71" type="toy_car" depart="72.00" from="-E8" to="-E7.68"/>

    <trip id="72" type="toy_car" depart="73.00" from="-E7" to="-E9"/>
    <trip id="73" type="toy_car" depart="74.00" from="E9" to="-E7.68"/>
    <trip id="74" type="toy_car" depart="75.00" from="E9" to="E8"/>
    <trip id="75" type="toy_car" depart="76.00" from="-E7" to="E8"/>
    <trip id="76" type="toy_car" depart="77.00" from="-E8" to="E7.61"/>
    <trip id="77" type="toy_car" depart="78.00" from="-E8" to="-E9"/>
    <trip id="78" type="toy_car" depart="79.00" from="E7" to="E8"/>
    <trip id="79" type="toy_car" depart="80.00" from="-E7" to="-E7.68"/>
    <trip id="80" type="toy_car" depart="81.00" from="E9" to="E7.61"/>
    <trip id="81" type="toy_car" depart="82.00" from="E7" to="E7.61"/>
    <trip id="82" type="toy_car" depart="83.00" from="E7" to="-E9"/>
    <trip id="83" type="toy_car" depart="84.00" from="-E8" to="-E7.68"/>

    <trip id="84" type="toy_car" depart="85.00" from="-E7" to="-E9"/>
    <trip id="85" type="toy_car" depart="86.00" from="E9" to="-E7.68"/>
    <trip id="86" type="toy_car" depart="87.00" from="E9" to="E8"/>
    <trip id="87" type="toy_car" depart="88.00" from="-E7" to="E8"/>
    <trip id="88" type="toy_car" depart="89.00" from="-E8" to="E7.61"/>
    <trip id="89" type="toy_car" depart="90.00" from="-E8" to="-E9"/>
    <trip id="90" type="toy_car" depart="91.00" from="E7" to="E8"/>
    <trip id="91" type="toy_car" depart="92.00" from="-E7" to="-E7.68"/>
    <trip id="92" type="toy_car" depart="93.00" from="E9" to="E7.61"/>
    <trip id="93" type="toy_car" depart="94.00" from="E7" to="E7.61"/>
    <trip id="94" type="toy_car" depart="95.00" from="E7" to="-E9"/>
    <trip id="95" type="toy_car" depart="96.00" from="-E8" to="-E7.68"/>

    <trip id="96" type="toy_car" depart="97.00" from="-E7" to="-E9"/>
    <trip id="97" type="toy_car" depart="98.00" from="E9" to="-E7.68"/>
    <trip id="98" type="toy_car" depart="99.00" from="E9" to="E8"/>
    <trip id="99" type="toy_car" depart="100.00" from="-E7" to="E8"/>
        <trip id="100" type="toy_car" depart="101.00" from="-E8" to="E7.61"/>
    <trip id="101" type="toy_car" depart="102.00" from="-E8" to="-E9"/>
    <trip id="102" type="toy_car" depart="103.00" from="E7" to="E8"/>
    <trip id="103" type="toy_car" depart="104.00" from="-E7" to="-E7.68"/>
    <trip id="104" type="toy_car" depart="105.00" from="E9" to="E7.61"/>
    <trip id="105" type="toy_car" depart="106.00" from="E7" to="E7.61"/>
    <trip id="106" type="toy_car" depart="107.00" from="E7" to="-E9"/>
    <trip id="107" type="toy_car" depart="108.00" from="-E8" to="-E7.68"/>
    <trip id="108" type="toy_car" depart="109.00" from="-E7" to="-E9"/>
    <trip id="109" type="toy_car" depart="110.00" from="E9" to="-E7.68"/>
    <trip id="110" type="toy_car" depart="111.00" from="E9" to="E8"/>
    <trip id="111" type="toy_car" depart="112.00" from="-E7" to="E8"/>

    <trip id="112" type="toy_car" depart="113.00" from="-E8" to="E7.61"/>
    <trip id="113" type="toy_car" depart="114.00" from="-E8" to="-E9"/>
    <trip id="114" type="toy_car" depart="115.00" from="E7" to="E8"/>
    <trip id="115" type="toy_car" depart="116.00" from="-E7" to="-E7.68"/>
    <trip id="116" type="toy_car" depart="117.00" from="E9" to="E7.61"/>
    <trip id="117" type="toy_car" depart="118.00" from="E7" to="E7.61"/>
    <trip id="118" type="toy_car" depart="119.00" from="E7" to="-E9"/>
    <trip id="119" type="toy_car" depart="120.00" from="-E8" to="-E7.68"/>
    <trip id="120" type="toy_car" depart="121.00" from="-E7" to="-E9"/>
    <trip id="121" type="toy_car" depart="122.00" from="E9" to="-E7.68"/>
    <trip id="122" type="toy_car" depart="123.00" from="E9" to="E8"/>
    <trip id="123" type="toy_car" depart="124.00" from="-E7" to="E8"/>

    <trip id="124" type="toy_car" depart="125.00" from="-E8" to="E7.61"/>
    <trip id="125" type="toy_car" depart="126.00" from="-E8" to="-E9"/>
    <trip id="126" type="toy_car" depart="127.00" from="E7" to="E8"/>
    <trip id="127" type="toy_car" depart="128.00" from="-E7" to="-E7.68"/>
    <trip id="128" type="toy_car" depart="129.00" from="E9" to="E7.61"/>
    <trip id="129" type="toy_car" depart="130.00" from="E7" to="E7.61"/>
    <trip id="130" type="toy_car" depart="131.00" from="E7" to="-E9"/>
    <trip id="131" type="toy_car" depart="132.00" from="-E8" to="-E7.68"/>
    <trip id="132" type="toy_car" depart="133.00" from="-E7" to="-E9"/>
    <trip id="133" type="toy_car" depart="134.00" from="E9" to="-E7.68"/>
    <trip id="134" type="toy_car" depart="135.00" from="E9" to="E8"/>
    <trip id="135" type="toy_car" depart="136.00" from="-E7" to="E8"/>

    <trip id="136" type="toy_car" depart="137.00" from="-E8" to="E7.61"/>
    <trip id="137" type="toy_car" depart="138.00" from="-E8" to="-E9"/>
    <trip id="138" type="toy_car" depart="139.00" from="E7" to="E8"/>
    <trip id="139" type="toy_car" depart="140.00" from="-E7" to="-E7.68"/>
    <trip id="140" type="toy_car" depart="141.00" from="E9" to="E7.61"/>
    <trip id="141" type="toy_car" depart="142.00" from="E7" to="E7.61"/>
    <trip id="142" type="toy_car" depart="143.00" from="E7" to="-E9"/>
    <trip id="143" type="toy_car" depart="144.00" from="-E8" to="-E7.68"/>
    <trip id="144" type="toy_car" depart="145.00" from="-E7" to="-E9"/>
    <trip id="145" type="toy_car" depart="146.00" from="E9" to="-E7.68"/>
    <trip id="146" type="toy_car" depart="147.00" from="E9" to="E8"/>
    <trip id="147" type="toy_car" depart="148.00" from="-E7" to="E8"/>

    <trip id="148" type="toy_car" depart="149.00" from="-E8" to="E7.61"/>
    <trip id="149" type="toy_car" depart="150.00" from="-E8" to="-E9"/>
    <trip id="150" type="toy_car" depart="151.00" from="E7" to="E8"/>
    <trip id="151" type="toy_car" depart="152.00" from="-E7" to="-E7.68"/>
    <trip id="152" type="toy_car" depart="153.00" from="E9" to="E7.61"/>
    <trip id="153" type="toy_car" depart="154.00" from="E7" to="E7.61"/>
    <trip id="154" type="toy_car" depart="155.00" from="E7" to="-E9"/>
    <trip id="155" type="toy_car" depart="156.00" from="-E8" to="-E7.68"/>
    <trip id="156" type="toy_car" depart="157.00" from="-E7" to="-E9"/>
    <trip id="157" type="toy_car" depart="158.00" from="E9" to="-E7.68"/>
    <trip id="158" type="toy_car" depart="159.00" from="E9" to="E8"/>
    <trip id="159" type="toy_car" depart="160.00" from="-E7" to="E8"/>

    <trip id="160" type="toy_car" depart="161.00" from="-E8" to="E7.61"/>
    <trip id="161" type="toy_car" depart="162.00" from="-E8" to="-E9"/>
    <trip id="162" type="toy_car" depart="163.00" from="E7" to="E8"/>
    <trip id="163" type="toy_car" depart="164.00" from="-E7" to="-E7.68"/>
    <trip id="164" type="toy_car" depart="165.00" from="E9" to="E7.61"/>
    <trip id="165" type="toy_car" depart="166.00" from="E7" to="E7.61"/>
    <trip id="166" type="toy_car" depart="167.00" from="E7" to="-E9"/>
    <trip id="167" type="toy_car" depart="168.00" from="-E8" to="-E7.68"/>
    <trip id="168" type="toy_car" depart="169.00" from="-E7" to="-E9"/>
    <trip id="169" type="toy_car" depart="170.00" from="E9" to="-E7.68"/>
    <trip id="170" type="toy_car" depart="171.00" from="E9" to="E8"/>
    <trip id="171" type="toy_car" depart="172.00" from="-E7" to="E8"/>

    <trip id="172" type="toy_car" depart="173.00" from="-E8" to="E7.61"/>
    <trip id="173" type="toy_car" depart="174.00" from="-E8" to="-E9"/>
    <trip id="174" type="toy_car" depart="175.00" from="E7" to="E8"/>
    <trip id="175" type="toy_car" depart="176.00" from="-E7" to="-E7.68"/>
    <trip id="176" type="toy_car" depart="177.00" from="E9" to="E7.61"/>
    <trip id="177" type="toy_car" depart="178.00" from="E7" to="E7.61"/>
    <trip id="178" type="toy_car" depart="179.00" from="E7" to="-E9"/>
    <trip id="179" type="toy_car" depart="180.00" from="-E8" to="-E7.68"/>
    <trip id="180" type="toy_car" depart="181.00" from="-E7" to="-E9"/>
    <trip id="181" type="toy_car" depart="182.00" from="E9" to="-E7.68"/>
    <trip id="182" type="toy_car" depart="183.00" from="E9" to="E8"/>
    <trip id="183" type="toy_car" depart="184.00" from="-E7" to="E8"/>

    <trip id="184" type="toy_car" depart="185.00" from="-E8" to="E7.61"/>
    <trip id="185" type="toy_car" depart="186.00" from="-E8" to="-E9"/>
    <trip id="186" type="toy_car" depart="187.00" from="E7" to="E8"/>
    <trip id="187" type="toy_car" depart="188.00" from="-E7" to="-E7.68"/>
    <trip id="188" type="toy_car" depart="189.00" from="E9" to="E7.61"/>
    <trip id="189" type="toy_car" depart="190.00" from="E7" to="E7.61"/>
    <trip id="190" type="toy_car" depart="191.00" from="E7" to="-E9"/>
    <trip id="191" type="toy_car" depart="192.00" from="-E8" to="-E7.68"/>
    <trip id="192" type="toy_car" depart="193.00" from="-E7" to="-E9"/>
    <trip id="193" type="toy_car" depart="194.00" from="E9" to="-E7.68"/>
    <trip id="194" type="toy_car" depart="195.00" from="E9" to="E8"/>
    <trip id="195" type="toy_car" depart="196.00" from="-E7" to="E8"/>

    <trip id="196" type="toy_car" depart="197.00" from="-E8" to="E7.61"/>
    <trip id="197" type="toy_car" depart="198.00" from="-E8" to="-E9"/>
    <trip id="198" type="toy_car" depart="199.00" from="E7" to="E8"/>
    <trip id="199" type="toy_car" depart="200.00" from="-E7" to="-E7.68"/>
</routes>