<?xml version="1.0" encoding="UTF-8"?>

<routes xmlns:xsi="http://www.w3.org/2001/XMLSchema-instance" xsi:noNamespaceSchemaLocation="http://sumo.dlr.de/xsd/routes_file.xsd">
    <vType id="toy_car" maxSpeed="13.0" accel="1" decel="1"/>

    <trip id="0" type="toy_car" depart="0.00" from="E7" to="E8"/>
    <trip id="1" type="toy_car" depart="5.70" from="E9" to="-E7.68"/>
    <trip id="2" type="toy_car" depart="10.44" from="E9" to="E8"/>
    <trip id="3" type="toy_car" depart="14.97" from="-E7" to="-E7.68"/>
    <trip id="4" type="toy_car" depart="19.12" from="E7" to="-E9"/>
    <trip id="5" type="toy_car" depart="24.10" from="-E8" to="-E9"/>
    <trip id="6" type="toy_car" depart="30.48" from="-E7" to="-E7.68"/>
    <trip id="7" type="toy_car" depart="34.47" from="-E7" to="-E9"/>
    <trip id="8" type="toy_car" depart="39.67" from="-E8" to="E7.61"/>
    <trip id="9" type="toy_car" depart="45.96" from="E7" to="-E9"/>
    <trip id="10" type="toy_car" depart="50.16" from="E7" to="-E9"/>
    <trip id="11" type="toy_car" depart="55.75" from="E7" to="-E9"/>
    <trip id="12" type="toy_car" depart="60.67" from="E7" to="E7.61"/>
    <trip id="13" type="toy_car" depart="64.16" from="-E7" to="-E7.68"/>
    <trip id="14" type="toy_car" depart="70.37" from="E9" to="E8"/>
    <trip id="15" type="toy_car" depart="75.60" from="E9" to="-E7.68"/>
    <trip id="16" type="toy_car" depart="80.02" from="E7" to="-E9"/>
    <trip id="17" type="toy_car" depart="84.85" from="-E8" to="-E7.68"/>
    <trip id="18" type="toy_car" depart="89.21" from="-E7" to="-E7.68"/>
    <trip id="19" type="toy_car" depart="94.83" from="-E7" to="E8"/>
    <trip id="20" type="toy_car" depart="99.16" from="-E8" to="E7.61"/>
    <trip id="21" type="toy_car" depart="105.95" from="-E8" to="E7.61"/>
    <trip id="22" type="toy_car" depart="109.85" from="E9" to="E7.61"/>
    <trip id="23" type="toy_car" depart="115.67" from="E9" to="-E7.68"/>
    <trip id="24" type="toy_car" depart="119.98" from="E9" to="E8"/>
    <trip id="25" type="toy_car" depart="124.18" from="-E8" to="-E9"/>
    <trip id="26" type="toy_car" depart="129.82" from="E9" to="E7.61"/>
    <trip id="27" type="toy_car" depart="134.23" from="E7" to="E7.61"/>
    <trip id="28" type="toy_car" depart="139.02" from="-E8" to="E7.61"/>
    <trip id="29" type="toy_car" depart="145.76" from="E9" to="-E7.68"/>
    <trip id="30" type="toy_car" depart="149.07" from="-E8" to="E7.61"/>
    <trip id="31" type="toy_car" depart="154.47" from="E7" to="-E9"/>
    <trip id="32" type="toy_car" depart="159.19" from="-E7" to="-E9"/>
    <trip id="33" type="toy_car" depart="165.84" from="-E7" to="-E9"/>
    <trip id="34" type="toy_car" depart="169.50" from="-E7" to="E8"/>
    <trip id="35" type="toy_car" depart="175.16" from="E7" to="E8"/>
    <trip id="36" type="toy_car" depart="180.57" from="-E8" to="-E7.68"/>
    <trip id="37" type="toy_car" depart="184.47" from="E9" to="E8"/>
    <trip id="38" type="toy_car" depart="190.96" from="-E8" to="E7.61"/>
    <trip id="39" type="toy_car" depart="195.97" from="E7" to="-E9"/>
    <trip id="40" type="toy_car" depart="200.26" from="-E8" to="-E7.68"/>
    <trip id="41" type="toy_car" depart="205.72" from="E9" to="E7.61"/>
    <trip id="42" type="toy_car" depart="210.89" from="-E8" to="-E9"/>
    <trip id="43" type="toy_car" depart="214.32" from="E7" to="E8"/>
    <trip id="44" type="toy_car" depart="219.46" from="-E8" to="E7.61"/>
    <trip id="45" type="toy_car" depart="224.71" from="-E7" to="E8"/>
    <trip id="46" type="toy_car" depart="230.25" from="E9" to="E7.61"/>
    <trip id="47" type="toy_car" depart="234.33" from="-E8" to="-E9"/>
    <trip id="48" type="toy_car" depart="239.23" from="E9" to="-E7.68"/>
    <trip id="49" type="toy_car" depart="245.59" from="E9" to="E8"/>
    <trip id="50" type="toy_car" depart="249.09" from="-E7" to="-E7.68"/>
    <trip id="51" type="toy_car" depart="254.52" from="E7" to="E8"/>
    <trip id="52" type="toy_car" depart="259.87" from="E9" to="E8"/>
    <trip id="53" type="toy_car" depart="265.83" from="-E8" to="E7.61"/>
    <trip id="54" type="toy_car" depart="270.88" from="-E8" to="E7.61"/>
    <trip id="55" type="toy_car" depart="275.20" from="E9" to="E7.61"/>
    <trip id="56" type="toy_car" depart="280.64" from="E7" to="E7.61"/>
    <trip id="57" type="toy_car" depart="285.13" from="E9" to="E8"/>
    <trip id="58" type="toy_car" depart="289.78" from="E9" to="E7.61"/>
    <trip id="59" type="toy_car" depart="295.96" from="E7" to="E7.61"/>
    <trip id="60" type="toy_car" depart="299.40" from="-E8" to="-E9"/>
    <trip id="61" type="toy_car" depart="304.66" from="E9" to="-E7.68"/>
    <trip id="62" type="toy_car" depart="310.66" from="E9" to="E7.61"/>
    <trip id="63" type="toy_car" depart="314.39" from="E7" to="-E9"/>
    <trip id="64" type="toy_car" depart="320.33" from="E7" to="-E9"/>
    <trip id="65" type="toy_car" depart="325.63" from="-E8" to="E7.61"/>
    <trip id="66" type="toy_car" depart="330.62" from="-E8" to="E7.61"/>
    <trip id="67" type="toy_car" depart="335.35" from="-E7" to="E8"/>
    <trip id="68" type="toy_car" depart="339.44" from="-E7" to="-E7.68"/>
    <trip id="69" type="toy_car" depart="344.86" from="-E8" to="E7.61"/>
    <trip id="70" type="toy_car" depart="349.29" from="E9" to="-E7.68"/>
    <trip id="71" type="toy_car" depart="355.01" from="-E7" to="-E9"/>
    <trip id="72" type="toy_car" depart="360.25" from="-E8" to="E7.61"/>
    <trip id="73" type="toy_car" depart="364.29" from="-E7" to="-E7.68"/>
    <trip id="74" type="toy_car" depart="370.82" from="-E7" to="E8"/>
    <trip id="75" type="toy_car" depart="374.18" from="-E8" to="E7.61"/>
    <trip id="76" type="toy_car" depart="380.17" from="E7" to="E7.61"/>
    <trip id="77" type="toy_car" depart="384.02" from="E7" to="-E9"/>
    <trip id="78" type="toy_car" depart="390.64" from="-E7" to="-E7.68"/>
    <trip id="79" type="toy_car" depart="395.00" from="E7" to="-E9"/>
    <trip id="80" type="toy_car" depart="399.65" from="E7" to="E7.61"/>
    <trip id="81" type="toy_car" depart="405.36" from="-E7" to="-E7.68"/>
    <trip id="82" type="toy_car" depart="409.33" from="E7" to="E7.61"/>
    <trip id="83" type="toy_car" depart="414.32" from="E9" to="-E7.68"/>
    <trip id="84" type="toy_car" depart="420.62" from="-E7" to="-E9"/>
    <trip id="85" type="toy_car" depart="424.61" from="-E8" to="-E9"/>
    <trip id="86" type="toy_car" depart="429.48" from="-E8" to="-E9"/>
    <trip id="87" type="toy_car" depart="434.90" from="-E7" to="E8"/>
    <trip id="88" type="toy_car" depart="439.60" from="-E8" to="-E9"/>
    <trip id="89" type="toy_car" depart="444.06" from="E9" to="-E7.68"/>
    <trip id="90" type="toy_car" depart="450.48" from="E7" to="-E9"/>
    <trip id="91" type="toy_car" depart="454.83" from="-E8" to="-E9"/>
    <trip id="92" type="toy_car" depart="460.67" from="-E7" to="-E7.68"/>
    <trip id="93" type="toy_car" depart="464.94" from="-E7" to="E8"/>
    <trip id="94" type="toy_car" depart="469.91" from="E7" to="-E9"/>
    <trip id="95" type="toy_car" depart="474.62" from="E9" to="E8"/>
    <trip id="96" type="toy_car" depart="479.78" from="E9" to="-E7.68"/>
    <trip id="97" type="toy_car" depart="484.93" from="-E8" to="E7.61"/>
    <trip id="98" type="toy_car" depart="489.81" from="E7" to="E8"/>
    <trip id="99" type="toy_car" depart="495.47" from="E9" to="E8"/>
    <trip id="100" type="toy_car" depart="500.97" from="-E8" to="-E7.68"/>
    <trip id="101" type="toy_car" depart="504.95" from="-E7" to="-E9"/>
    <trip id="102" type="toy_car" depart="510.47" from="-E8" to="E7.61"/>
    <trip id="103" type="toy_car" depart="515.41" from="E7" to="E7.61"/>
    <trip id="104" type="toy_car" depart="519.06" from="-E8" to="-E7.68"/>
    <trip id="105" type="toy_car" depart="524.22" from="-E8" to="-E7.68"/>
    <trip id="106" type="toy_car" depart="530.05" from="E9" to="-E7.68"/>
    <trip id="107" type="toy_car" depart="534.51" from="-E8" to="E7.61"/>
    <trip id="108" type="toy_car" depart="539.99" from="-E7" to="E8"/>
    <trip id="109" type="toy_car" depart="544.61" from="-E7" to="-E9"/>
    <trip id="110" type="toy_car" depart="550.33" from="E7" to="E8"/>
    <trip id="111" type="toy_car" depart="555.01" from="E9" to="E7.61"/>
    <trip id="112" type="toy_car" depart="560.53" from="E9" to="-E7.68"/>
    <trip id="113" type="toy_car" depart="565.29" from="-E7" to="-E7.68"/>
    <trip id="114" type="toy_car" depart="569.26" from="-E7" to="-E7.68"/>
    <trip id="115" type="toy_car" depart="575.81" from="-E7" to="-E9"/>
    <trip id="116" type="toy_car" depart="579.61" from="-E7" to="E8"/>
    <trip id="117" type="toy_car" depart="585.15" from="E9" to="E7.61"/>
    <trip id="118" type="toy_car" depart="589.06" from="-E7" to="-E7.68"/>
    <trip id="119" type="toy_car" depart="594.68" from="E7" to="-E9"/>
    <trip id="120" type="toy_car" depart="600.66" from="E9" to="E8"/>
    <trip id="121" type="toy_car" depart="604.54" from="E9" to="E8"/>
    <trip id="122" type="toy_car" depart="609.03" from="-E8" to="-E9"/>
    <trip id="123" type="toy_car" depart="614.63" from="E7" to="E7.61"/>
    <trip id="124" type="toy_car" depart="619.09" from="-E7" to="-E9"/>
    <trip id="125" type="toy_car" depart="624.10" from="E9" to="-E7.68"/>
    <trip id="126" type="toy_car" depart="629.67" from="-E7" to="-E7.68"/>
    <trip id="127" type="toy_car" depart="634.15" from="E7" to="E7.61"/>
    <trip id="128" type="toy_car" depart="639.39" from="-E7" to="-E9"/>
    <trip id="129" type="toy_car" depart="645.69" from="E9" to="E7.61"/>
    <trip id="130" type="toy_car" depart="649.97" from="-E7" to="-E7.68"/>
    <trip id="131" type="toy_car" depart="655.22" from="E7" to="-E9"/>
    <trip id="132" type="toy_car" depart="660.02" from="-E7" to="-E7.68"/>
    <trip id="133" type="toy_car" depart="665.71" from="-E7" to="-E9"/>
    <trip id="134" type="toy_car" depart="670.85" from="E7" to="-E9"/>
    <trip id="135" type="toy_car" depart="675.34" from="E7" to="-E9"/>
    <trip id="136" type="toy_car" depart="680.33" from="E9" to="-E7.68"/>
    <trip id="137" type="toy_car" depart="685.35" from="-E7" to="-E9"/>
    <trip id="138" type="toy_car" depart="690.54" from="E9" to="E7.61"/>
    <trip id="139" type="toy_car" depart="694.08" from="-E8" to="E7.61"/>
    <trip id="140" type="toy_car" depart="699.63" from="-E7" to="-E9"/>
</routes>