<?xml version="1.0" encoding="UTF-8"?>

<routes xmlns:xsi="http://www.w3.org/2001/XMLSchema-instance" xsi:noNamespaceSchemaLocation="http://sumo.dlr.de/xsd/routes_file.xsd">
    <vType id="toy_car" maxSpeed="13.0" accel="1" decel="1"/>

    <trip id="0" type="toy_car" depart="0.00" from="E7" to="-E9"/>
    <trip id="1" type="toy_car" depart="5.13" from="E7" to="E7.61"/>
    <trip id="2" type="toy_car" depart="9.15" from="-E8" to="-E9"/>
    <trip id="3" type="toy_car" depart="15.93" from="-E8" to="E7.61"/>
    <trip id="4" type="toy_car" depart="19.25" from="E9" to="E8"/>
    <trip id="5" type="toy_car" depart="24.71" from="E7" to="E7.61"/>
    <trip id="6" type="toy_car" depart="29.46" from="-E8" to="-E7.68"/>
    <trip id="7" type="toy_car" depart="35.80" from="-E8" to="-E7.68"/>
    <trip id="8" type="toy_car" depart="39.29" from="E9" to="-E7.68"/>
    <trip id="9" type="toy_car" depart="45.82" from="E9" to="E8"/>
    <trip id="10" type="toy_car" depart="50.80" from="-E8" to="-E7.68"/>
    <trip id="11" type="toy_car" depart="54.10" from="-E8" to="-E9"/>
    <trip id="12" type="toy_car" depart="60.75" from="E7" to="E7.61"/>
    <trip id="13" type="toy_car" depart="65.59" from="E7" to="E8"/>
    <trip id="14" type="toy_car" depart="69.71" from="-E8" to="-E7.68"/>
    <trip id="15" type="toy_car" depart="74.81" from="E9" to="E7.61"/>
    <trip id="16" type="toy_car" depart="80.03" from="E7" to="E7.61"/>
    <trip id="17" type="toy_car" depart="85.90" from="E7" to="-E9"/>
    <trip id="18" type="toy_car" depart="89.11" from="E9" to="E7.61"/>
    <trip id="19" type="toy_car" depart="95.16" from="-E7" to="E8"/>
    <trip id="20" type="toy_car" depart="99.67" from="E7" to="E7.61"/>
    <trip id="21" type="toy_car" depart="105.35" from="E9" to="E7.61"/>
    <trip id="22" type="toy_car" depart="109.02" from="E7" to="E8"/>
    <trip id="23" type="toy_car" depart="114.71" from="E7" to="E8"/>
    <trip id="24" type="toy_car" depart="119.19" from="-E8" to="-E7.68"/>
    <trip id="25" type="toy_car" depart="125.69" from="E9" to="E7.61"/>
    <trip id="26" type="toy_car" depart="129.04" from="-E7" to="-E7.68"/>
    <trip id="27" type="toy_car" depart="134.20" from="-E7" to="E8"/>
    <trip id="28" type="toy_car" depart="140.84" from="-E7" to="E8"/>
    <trip id="29" type="toy_car" depart="144.95" from="-E7" to="E8"/>
    <trip id="30" type="toy_car" depart="150.96" from="E7" to="E8"/>
    <trip id="31" type="toy_car" depart="154.70" from="-E8" to="E7.61"/>
    <trip id="32" type="toy_car" depart="159.54" from="E9" to="E8"/>
    <trip id="33" type="toy_car" depart="165.73" from="E9" to="-E7.68"/>
    <trip id="34" type="toy_car" depart="169.23" from="-E8" to="-E7.68"/>
    <trip id="35" type="toy_car" depart="174.81" from="E9" to="-E7.68"/>
    <trip id="36" type="toy_car" depart="179.52" from="E9" to="-E7.68"/>
    <trip id="37" type="toy_car" depart="184.26" from="-E8" to="E7.61"/>
    <trip id="38" type="toy_car" depart="189.67" from="E7" to="E7.61"/>
    <trip id="39" type="toy_car" depart="194.04" from="E9" to="E8"/>
    <trip id="40" type="toy_car" depart="200.49" from="E9" to="E8"/>
    <trip id="41" type="toy_car" depart="204.57" from="-E8" to="-E9"/>
    <trip id="42" type="toy_car" depart="210.60" from="E7" to="-E9"/>
    <trip id="43" type="toy_car" depart="214.24" from="E7" to="E8"/>
    <trip id="44" type="toy_car" depart="219.45" from="E9" to="E7.61"/>
    <trip id="45" type="toy_car" depart="225.43" from="E7" to="E7.61"/>
    <trip id="46" type="toy_car" depart="230.51" from="E9" to="E8"/>
    <trip id="47" type="toy_car" depart="234.70" from="E9" to="E8"/>
    <trip id="48" type="toy_car" depart="239.62" from="E7" to="-E9"/>
    <trip id="49" type="toy_car" depart="244.49" from="E7" to="E8"/>
    <trip id="50" type="toy_car" depart="250.35" from="-E7" to="-E9"/>
    <trip id="51" type="toy_car" depart="255.87" from="-E8" to="-E9"/>
    <trip id="52" type="toy_car" depart="260.78" from="E7" to="E7.61"/>
    <trip id="53" type="toy_car" depart="265.19" from="E9" to="E8"/>
    <trip id="54" type="toy_car" depart="270.91" from="E7" to="-E9"/>
    <trip id="55" type="toy_car" depart="274.57" from="E9" to="E8"/>
    <trip id="56" type="toy_car" depart="279.76" from="E7" to="-E9"/>
    <trip id="57" type="toy_car" depart="285.29" from="E7" to="E7.61"/>
    <trip id="58" type="toy_car" depart="290.16" from="E9" to="-E7.68"/>
    <trip id="59" type="toy_car" depart="294.41" from="E7" to="E7.61"/>
    <trip id="60" type="toy_car" depart="299.91" from="-E8" to="-E9"/>
    <trip id="61" type="toy_car" depart="304.96" from="E9" to="-E7.68"/>
    <trip id="62" type="toy_car" depart="310.95" from="E7" to="-E9"/>
    <trip id="63" type="toy_car" depart="315.07" from="E7" to="E8"/>
    <trip id="64" type="toy_car" depart="319.77" from="E9" to="E7.61"/>
    <trip id="65" type="toy_car" depart="325.28" from="E7" to="E8"/>
    <trip id="66" type="toy_car" depart="330.09" from="-E8" to="E7.61"/>
    <trip id="67" type="toy_car" depart="335.13" from="E7" to="E7.61"/>
    <trip id="68" type="toy_car" depart="339.52" from="E7" to="E7.61"/>
    <trip id="69" type="toy_car" depart="345.44" from="-E7" to="-E7.68"/>
    <trip id="70" type="toy_car" depart="349.17" from="-E7" to="-E7.68"/>
    <trip id="71" type="toy_car" depart="355.45" from="-E8" to="E7.61"/>
    <trip id="72" type="toy_car" depart="359.91" from="E9" to="E7.61"/>
    <trip id="73" type="toy_car" depart="365.92" from="E7" to="-E9"/>
    <trip id="74" type="toy_car" depart="370.83" from="-E7" to="E8"/>
    <trip id="75" type="toy_car" depart="375.12" from="E7" to="E8"/>
    <trip id="76" type="toy_car" depart="379.38" from="E7" to="-E9"/>
    <trip id="77" type="toy_car" depart="385.93" from="E7" to="E8"/>
    <trip id="78" type="toy_car" depart="390.31" from="E7" to="E7.61"/>
    <trip id="79" type="toy_car" depart="394.01" from="-E8" to="-E9"/>
    <trip id="80" type="toy_car" depart="399.46" from="-E8" to="-E7.68"/>
    <trip id="81" type="toy_car" depart="405.63" from="-E8" to="-E7.68"/>
    <trip id="82" type="toy_car" depart="409.07" from="-E7" to="E8"/>
    <trip id="83" type="toy_car" depart="414.43" from="E7" to="-E9"/>
    <trip id="84" type="toy_car" depart="419.16" from="E9" to="E7.61"/>
    <trip id="85" type="toy_car" depart="425.79" from="-E7" to="-E9"/>
    <trip id="86" type="toy_car" depart="430.55" from="E7" to="E7.61"/>
    <trip id="87" type="toy_car" depart="434.28" from="E7" to="E8"/>
    <trip id="88" type="toy_car" depart="439.84" from="E7" to="-E9"/>
    <trip id="89" type="toy_car" depart="445.22" from="-E8" to="-E9"/>
    <trip id="90" type="toy_car" depart="449.73" from="-E8" to="-E7.68"/>
    <trip id="91" type="toy_car" depart="455.14" from="-E8" to="E7.61"/>
    <trip id="92" type="toy_car" depart="459.06" from="-E7" to="E8"/>
    <trip id="93" type="toy_car" depart="464.16" from="-E7" to="-E9"/>
    <trip id="94" type="toy_car" depart="470.08" from="E9" to="E7.61"/>
    <trip id="95" type="toy_car" depart="475.90" from="E9" to="E7.61"/>
    <trip id="96" type="toy_car" depart="479.13" from="-E7" to="E8"/>
    <trip id="97" type="toy_car" depart="485.43" from="E7" to="E7.61"/>
    <trip id="98" type="toy_car" depart="489.32" from="E9" to="E7.61"/>
    <trip id="99" type="toy_car" depart="494.76" from="E7" to="E8"/>
    <trip id="100" type="toy_car" depart="499.33" from="E9" to="-E7.68"/>
    <trip id="101" type="toy_car" depart="504.34" from="E7" to="E8"/>
    <trip id="102" type="toy_car" depart="510.79" from="-E8" to="E7.61"/>
    <trip id="103" type="toy_car" depart="515.27" from="E7" to="-E9"/>
    <trip id="104" type="toy_car" depart="519.35" from="E9" to="-E7.68"/>
    <trip id="105" type="toy_car" depart="524.77" from="E9" to="E8"/>
    <trip id="106" type="toy_car" depart="529.79" from="-E7" to="-E9"/>
    <trip id="107" type="toy_car" depart="535.75" from="-E7" to="-E7.68"/>
    <trip id="108" type="toy_car" depart="540.86" from="E9" to="E8"/>
    <trip id="109" type="toy_car" depart="545.86" from="-E7" to="-E7.68"/>
    <trip id="110" type="toy_car" depart="550.34" from="-E7" to="-E7.68"/>
    <trip id="111" type="toy_car" depart="554.37" from="E7" to="-E9"/>
    <trip id="112" type="toy_car" depart="559.71" from="E7" to="-E9"/>
    <trip id="113" type="toy_car" depart="564.45" from="E9" to="-E7.68"/>
    <trip id="114" type="toy_car" depart="570.54" from="E9" to="E8"/>
    <trip id="115" type="toy_car" depart="574.36" from="-E7" to="E8"/>
    <trip id="116" type="toy_car" depart="579.89" from="-E8" to="E7.61"/>
    <trip id="117" type="toy_car" depart="584.74" from="-E7" to="-E9"/>
    <trip id="118" type="toy_car" depart="589.49" from="E9" to="-E7.68"/>
    <trip id="119" type="toy_car" depart="594.33" from="E9" to="-E7.68"/>
    <trip id="120" type="toy_car" depart="600.70" from="E9" to="-E7.68"/>
    <trip id="121" type="toy_car" depart="605.21" from="E7" to="E8"/>
    <trip id="122" type="toy_car" depart="609.79" from="-E8" to="-E9"/>
    <trip id="123" type="toy_car" depart="614.24" from="-E7" to="-E7.68"/>
    <trip id="124" type="toy_car" depart="619.42" from="-E8" to="-E7.68"/>
    <trip id="125" type="toy_car" depart="625.48" from="E7" to="E8"/>
    <trip id="126" type="toy_car" depart="629.63" from="-E8" to="-E7.68"/>
    <trip id="127" type="toy_car" depart="635.30" from="E7" to="E7.61"/>
    <trip id="128" type="toy_car" depart="640.47" from="-E8" to="-E7.68"/>
    <trip id="129" type="toy_car" depart="644.67" from="-E8" to="-E7.68"/>
    <trip id="130" type="toy_car" depart="650.37" from="-E8" to="-E9"/>
    <trip id="131" type="toy_car" depart="654.79" from="-E8" to="-E7.68"/>
    <trip id="132" type="toy_car" depart="660.35" from="-E8" to="-E7.68"/>
    <trip id="133" type="toy_car" depart="665.62" from="E9" to="E7.61"/>
    <trip id="134" type="toy_car" depart="669.79" from="E9" to="E8"/>
    <trip id="135" type="toy_car" depart="675.31" from="-E7" to="-E9"/>
    <trip id="136" type="toy_car" depart="679.38" from="E9" to="-E7.68"/>
    <trip id="137" type="toy_car" depart="685.34" from="-E8" to="E7.61"/>
    <trip id="138" type="toy_car" depart="689.78" from="E9" to="E7.61"/>
    <trip id="139" type="toy_car" depart="694.14" from="-E7" to="-E7.68"/>
    <trip id="140" type="toy_car" depart="700.06" from="E7" to="E8"/>
</routes>