<?xml version="1.0" encoding="UTF-8"?>

<routes xmlns:xsi="http://www.w3.org/2001/XMLSchema-instance" xsi:noNamespaceSchemaLocation="http://sumo.dlr.de/xsd/routes_file.xsd">
    <vType id="toy_car" maxSpeed="13.0" accel="1" decel="1"/>

    <trip id="0" type="toy_car" depart="0.43" from="-E7" to="-E9"/>
    <trip id="1" type="toy_car" depart="5.62" from="-E8" to="E7.61"/>
    <trip id="2" type="toy_car" depart="10.03" from="-E7" to="-E7.68"/>
    <trip id="3" type="toy_car" depart="14.20" from="E7" to="-E9"/>
    <trip id="4" type="toy_car" depart="20.26" from="-E8" to="-E9"/>
    <trip id="5" type="toy_car" depart="25.50" from="-E7" to="-E7.68"/>
    <trip id="6" type="toy_car" depart="29.34" from="E9" to="E7.61"/>
    <trip id="7" type="toy_car" depart="34.75" from="-E7" to="-E9"/>
    <trip id="8" type="toy_car" depart="39.65" from="-E7" to="E8"/>
    <trip id="9" type="toy_car" depart="44.81" from="-E7" to="E8"/>
    <trip id="10" type="toy_car" depart="50.40" from="E7" to="E7.61"/>
    <trip id="11" type="toy_car" depart="54.32" from="E7" to="E7.61"/>
    <trip id="12" type="toy_car" depart="59.44" from="E7" to="E8"/>
    <trip id="13" type="toy_car" depart="65.93" from="E7" to="E7.61"/>
    <trip id="14" type="toy_car" depart="69.95" from="-E8" to="E7.61"/>
    <trip id="15" type="toy_car" depart="75.68" from="-E8" to="E7.61"/>
    <trip id="16" type="toy_car" depart="80.14" from="E7" to="-E9"/>
    <trip id="17" type="toy_car" depart="85.79" from="E9" to="-E7.68"/>
    <trip id="18" type="toy_car" depart="89.77" from="E9" to="E7.61"/>
    <trip id="19" type="toy_car" depart="94.19" from="-E7" to="E8"/>
    <trip id="20" type="toy_car" depart="99.29" from="-E7" to="-E9"/>
    <trip id="21" type="toy_car" depart="104.28" from="E7" to="E7.61"/>
    <trip id="22" type="toy_car" depart="110.04" from="-E7" to="E8"/>
    <trip id="23" type="toy_car" depart="114.10" from="E9" to="E8"/>
    <trip id="24" type="toy_car" depart="120.31" from="-E8" to="-E7.68"/>
    <trip id="25" type="toy_car" depart="124.34" from="E7" to="E8"/>
    <trip id="26" type="toy_car" depart="129.91" from="-E8" to="E7.61"/>
    <trip id="27" type="toy_car" depart="134.94" from="E7" to="E7.61"/>
    <trip id="28" type="toy_car" depart="140.47" from="E9" to="-E7.68"/>
    <trip id="29" type="toy_car" depart="145.28" from="-E7" to="E8"/>
    <trip id="30" type="toy_car" depart="150.66" from="E9" to="E8"/>
    <trip id="31" type="toy_car" depart="155.91" from="E7" to="E8"/>
    <trip id="32" type="toy_car" depart="160.28" from="-E7" to="-E9"/>
    <trip id="33" type="toy_car" depart="164.53" from="-E8" to="-E7.68"/>
    <trip id="34" type="toy_car" depart="169.56" from="E7" to="E7.61"/>
    <trip id="35" type="toy_car" depart="175.39" from="-E8" to="-E9"/>
    <trip id="36" type="toy_car" depart="180.31" from="-E7" to="-E7.68"/>
    <trip id="37" type="toy_car" depart="184.77" from="E9" to="E7.61"/>
    <trip id="38" type="toy_car" depart="189.13" from="-E8" to="-E9"/>
    <trip id="39" type="toy_car" depart="194.24" from="E9" to="-E7.68"/>
    <trip id="40" type="toy_car" depart="200.74" from="E9" to="-E7.68"/>
    <trip id="41" type="toy_car" depart="205.57" from="-E7" to="-E7.68"/>
    <trip id="42" type="toy_car" depart="209.42" from="E7" to="E8"/>
    <trip id="43" type="toy_car" depart="215.91" from="-E7" to="-E7.68"/>
    <trip id="44" type="toy_car" depart="219.36" from="E9" to="-E7.68"/>
    <trip id="45" type="toy_car" depart="224.82" from="E7" to="E8"/>
    <trip id="46" type="toy_car" depart="229.43" from="E9" to="E7.61"/>
    <trip id="47" type="toy_car" depart="234.32" from="E7" to="-E9"/>
    <trip id="48" type="toy_car" depart="239.56" from="-E8" to="E7.61"/>
    <trip id="49" type="toy_car" depart="244.52" from="E7" to="E8"/>
    <trip id="50" type="toy_car" depart="250.78" from="E9" to="E8"/>
    <trip id="51" type="toy_car" depart="255.02" from="-E7" to="-E9"/>
    <trip id="52" type="toy_car" depart="260.72" from="-E8" to="-E7.68"/>
    <trip id="53" type="toy_car" depart="265.39" from="E7" to="E8"/>
    <trip id="54" type="toy_car" depart="270.32" from="-E7" to="-E7.68"/>
    <trip id="55" type="toy_car" depart="274.96" from="E7" to="E7.61"/>
    <trip id="56" type="toy_car" depart="280.80" from="-E7" to="-E9"/>
    <trip id="57" type="toy_car" depart="284.21" from="E9" to="E8"/>
    <trip id="58" type="toy_car" depart="289.44" from="E9" to="E7.61"/>
    <trip id="59" type="toy_car" depart="295.07" from="E9" to="E7.61"/>
    <trip id="60" type="toy_car" depart="300.81" from="-E7" to="-E7.68"/>
    <trip id="61" type="toy_car" depart="304.53" from="E9" to="-E7.68"/>
    <trip id="62" type="toy_car" depart="310.07" from="E7" to="-E9"/>
    <trip id="63" type="toy_car" depart="315.08" from="E9" to="E7.61"/>
    <trip id="64" type="toy_car" depart="319.11" from="-E8" to="E7.61"/>
    <trip id="65" type="toy_car" depart="324.52" from="-E7" to="-E7.68"/>
    <trip id="66" type="toy_car" depart="329.02" from="E7" to="E7.61"/>
    <trip id="67" type="toy_car" depart="334.40" from="-E8" to="-E9"/>
    <trip id="68" type="toy_car" depart="339.65" from="E9" to="E8"/>
    <trip id="69" type="toy_car" depart="344.15" from="-E7" to="E8"/>
    <trip id="70" type="toy_car" depart="349.36" from="E7" to="E7.61"/>
    <trip id="71" type="toy_car" depart="354.07" from="-E8" to="E7.61"/>
    <trip id="72" type="toy_car" depart="360.68" from="E9" to="E7.61"/>
    <trip id="73" type="toy_car" depart="365.68" from="-E8" to="-E9"/>
    <trip id="74" type="toy_car" depart="370.39" from="-E8" to="E7.61"/>
    <trip id="75" type="toy_car" depart="374.23" from="-E8" to="-E9"/>
    <trip id="76" type="toy_car" depart="379.69" from="-E8" to="-E9"/>
    <trip id="77" type="toy_car" depart="384.44" from="-E7" to="-E7.68"/>
    <trip id="78" type="toy_car" depart="390.59" from="-E7" to="-E7.68"/>
    <trip id="79" type="toy_car" depart="395.69" from="-E8" to="-E7.68"/>
    <trip id="80" type="toy_car" depart="399.55" from="E9" to="E7.61"/>
    <trip id="81" type="toy_car" depart="404.13" from="-E7" to="-E7.68"/>
    <trip id="82" type="toy_car" depart="410.23" from="-E7" to="-E9"/>
    <trip id="83" type="toy_car" depart="415.14" from="E9" to="-E7.68"/>
    <trip id="84" type="toy_car" depart="419.95" from="-E7" to="E8"/>
    <trip id="85" type="toy_car" depart="424.57" from="E9" to="E7.61"/>
    <trip id="86" type="toy_car" depart="430.68" from="-E7" to="E8"/>
    <trip id="87" type="toy_car" depart="435.49" from="E7" to="-E9"/>
    <trip id="88" type="toy_car" depart="440.90" from="-E8" to="-E9"/>
    <trip id="89" type="toy_car" depart="444.31" from="-E7" to="-E7.68"/>
    <trip id="90" type="toy_car" depart="449.82" from="E9" to="E7.61"/>
    <trip id="91" type="toy_car" depart="455.46" from="E7" to="-E9"/>
    <trip id="92" type="toy_car" depart="460.40" from="E7" to="E8"/>
    <trip id="93" type="toy_car" depart="464.73" from="-E7" to="-E7.68"/>
    <trip id="94" type="toy_car" depart="469.83" from="E9" to="-E7.68"/>
    <trip id="95" type="toy_car" depart="474.98" from="E7" to="-E9"/>
    <trip id="96" type="toy_car" depart="480.20" from="-E7" to="-E7.68"/>
    <trip id="97" type="toy_car" depart="485.92" from="E9" to="-E7.68"/>
    <trip id="98" type="toy_car" depart="490.94" from="-E7" to="-E9"/>
    <trip id="99" type="toy_car" depart="495.82" from="-E8" to="E7.61"/>
    <trip id="100" type="toy_car" depart="500.49" from="-E8" to="-E9"/>
    <trip id="101" type="toy_car" depart="505.98" from="E9" to="E8"/>
    <trip id="102" type="toy_car" depart="510.51" from="-E8" to="-E9"/>
    <trip id="103" type="toy_car" depart="514.94" from="E9" to="E7.61"/>
    <trip id="104" type="toy_car" depart="519.24" from="-E7" to="E8"/>
    <trip id="105" type="toy_car" depart="524.31" from="E9" to="E7.61"/>
    <trip id="106" type="toy_car" depart="529.89" from="E7" to="E8"/>
    <trip id="107" type="toy_car" depart="534.69" from="E7" to="E7.61"/>
    <trip id="108" type="toy_car" depart="540.43" from="-E8" to="-E9"/>
    <trip id="109" type="toy_car" depart="545.65" from="E7" to="E7.61"/>
    <trip id="110" type="toy_car" depart="549.35" from="-E7" to="-E9"/>
    <trip id="111" type="toy_car" depart="555.07" from="-E7" to="-E9"/>
    <trip id="112" type="toy_car" depart="559.36" from="-E8" to="-E9"/>
    <trip id="113" type="toy_car" depart="564.10" from="-E8" to="-E9"/>
    <trip id="114" type="toy_car" depart="569.44" from="E9" to="E8"/>
    <trip id="115" type="toy_car" depart="575.84" from="-E7" to="E8"/>
    <trip id="116" type="toy_car" depart="579.75" from="E9" to="E8"/>
    <trip id="117" type="toy_car" depart="585.48" from="E9" to="E7.61"/>
    <trip id="118" type="toy_car" depart="590.57" from="E7" to="-E9"/>
    <trip id="119" type="toy_car" depart="594.56" from="E7" to="E7.61"/>
    <trip id="120" type="toy_car" depart="600.22" from="-E7" to="-E7.68"/>
    <trip id="121" type="toy_car" depart="604.19" from="-E8" to="-E7.68"/>
    <trip id="122" type="toy_car" depart="610.09" from="-E7" to="-E9"/>
    <trip id="123" type="toy_car" depart="614.88" from="-E7" to="E8"/>
    <trip id="124" type="toy_car" depart="619.74" from="-E7" to="E8"/>
    <trip id="125" type="toy_car" depart="624.17" from="E7" to="E7.61"/>
    <trip id="126" type="toy_car" depart="629.27" from="E7" to="E7.61"/>
    <trip id="127" type="toy_car" depart="635.96" from="E7" to="-E9"/>
    <trip id="128" type="toy_car" depart="640.02" from="E9" to="E8"/>
    <trip id="129" type="toy_car" depart="644.69" from="E9" to="E8"/>
    <trip id="130" type="toy_car" depart="650.67" from="-E7" to="E8"/>
    <trip id="131" type="toy_car" depart="654.82" from="-E7" to="-E9"/>
    <trip id="132" type="toy_car" depart="659.04" from="-E8" to="E7.61"/>
    <trip id="133" type="toy_car" depart="664.84" from="-E8" to="E7.61"/>
    <trip id="134" type="toy_car" depart="669.85" from="E7" to="E7.61"/>
    <trip id="135" type="toy_car" depart="675.43" from="E7" to="E7.61"/>
    <trip id="136" type="toy_car" depart="679.23" from="-E8" to="-E7.68"/>
    <trip id="137" type="toy_car" depart="685.08" from="E7" to="E8"/>
    <trip id="138" type="toy_car" depart="689.46" from="-E8" to="E7.61"/>
    <trip id="139" type="toy_car" depart="694.79" from="E7" to="E7.61"/>
    <trip id="140" type="toy_car" depart="700.80" from="E7" to="E8"/>
</routes>