<?xml version="1.0" encoding="UTF-8"?>

<routes xmlns:xsi="http://www.w3.org/2001/XMLSchema-instance" xsi:noNamespaceSchemaLocation="http://sumo.dlr.de/xsd/routes_file.xsd">
    <vType id="toy_car" maxSpeed="13.0" accel="1" decel="1"/>

    <trip id="0" type="toy_car" depart="0.34" from="-E7" to="-E7.68"/>
    <trip id="1" type="toy_car" depart="5.62" from="E9" to="-E7.68"/>
    <trip id="2" type="toy_car" depart="10.25" from="-E7" to="-E7.68"/>
    <trip id="3" type="toy_car" depart="14.12" from="-E8" to="E7.61"/>
    <trip id="4" type="toy_car" depart="19.02" from="E9" to="-E7.68"/>
    <trip id="5" type="toy_car" depart="25.87" from="E9" to="-E7.68"/>
    <trip id="6" type="toy_car" depart="29.19" from="-E8" to="-E7.68"/>
    <trip id="7" type="toy_car" depart="34.03" from="-E7" to="-E7.68"/>
    <trip id="8" type="toy_car" depart="40.41" from="E9" to="E7.61"/>
    <trip id="9" type="toy_car" depart="45.13" from="-E7" to="-E7.68"/>
    <trip id="10" type="toy_car" depart="49.26" from="-E8" to="E7.61"/>
    <trip id="11" type="toy_car" depart="54.78" from="E7" to="E7.61"/>
    <trip id="12" type="toy_car" depart="59.10" from="E9" to="E7.61"/>
    <trip id="13" type="toy_car" depart="65.85" from="E7" to="E7.61"/>
    <trip id="14" type="toy_car" depart="70.56" from="E7" to="-E9"/>
    <trip id="15" type="toy_car" depart="74.62" from="E9" to="E7.61"/>
    <trip id="16" type="toy_car" depart="79.72" from="-E8" to="E7.61"/>
    <trip id="17" type="toy_car" depart="85.10" from="-E8" to="-E9"/>
    <trip id="18" type="toy_car" depart="90.27" from="-E8" to="-E7.68"/>
    <trip id="19" type="toy_car" depart="94.28" from="-E7" to="-E7.68"/>
    <trip id="20" type="toy_car" depart="99.31" from="-E7" to="-E7.68"/>
    <trip id="21" type="toy_car" depart="104.61" from="E9" to="-E7.68"/>
    <trip id="22" type="toy_car" depart="110.20" from="E9" to="-E7.68"/>
    <trip id="23" type="toy_car" depart="115.86" from="-E8" to="-E7.68"/>
    <trip id="24" type="toy_car" depart="119.19" from="-E7" to="-E9"/>
    <trip id="25" type="toy_car" depart="125.93" from="E7" to="E7.61"/>
    <trip id="26" type="toy_car" depart="129.72" from="-E7" to="-E7.68"/>
    <trip id="27" type="toy_car" depart="135.62" from="-E8" to="E7.61"/>
    <trip id="28" type="toy_car" depart="140.49" from="E7" to="E7.61"/>
    <trip id="29" type="toy_car" depart="144.48" from="E7" to="E7.61"/>
    <trip id="30" type="toy_car" depart="149.83" from="E7" to="E7.61"/>
    <trip id="31" type="toy_car" depart="154.55" from="-E7" to="-E9"/>
    <trip id="32" type="toy_car" depart="160.34" from="-E7" to="E8"/>
    <trip id="33" type="toy_car" depart="164.18" from="E7" to="E7.61"/>
    <trip id="34" type="toy_car" depart="169.76" from="E9" to="E7.61"/>
    <trip id="35" type="toy_car" depart="175.68" from="-E8" to="E7.61"/>
    <trip id="36" type="toy_car" depart="179.11" from="E7" to="E8"/>
    <trip id="37" type="toy_car" depart="185.42" from="-E8" to="E7.61"/>
    <trip id="38" type="toy_car" depart="189.77" from="E9" to="E7.61"/>
    <trip id="39" type="toy_car" depart="195.72" from="-E7" to="-E9"/>
    <trip id="40" type="toy_car" depart="199.14" from="E9" to="-E7.68"/>
    <trip id="41" type="toy_car" depart="205.33" from="-E7" to="E8"/>
    <trip id="42" type="toy_car" depart="209.83" from="E7" to="E8"/>
    <trip id="43" type="toy_car" depart="215.76" from="E9" to="-E7.68"/>
    <trip id="44" type="toy_car" depart="220.05" from="-E7" to="-E9"/>
    <trip id="45" type="toy_car" depart="224.86" from="E9" to="E7.61"/>
    <trip id="46" type="toy_car" depart="230.02" from="E7" to="E8"/>
    <trip id="47" type="toy_car" depart="235.41" from="E7" to="-E9"/>
    <trip id="48" type="toy_car" depart="240.65" from="E7" to="E7.61"/>
    <trip id="49" type="toy_car" depart="244.06" from="E9" to="E7.61"/>
    <trip id="50" type="toy_car" depart="250.67" from="-E7" to="-E7.68"/>
    <trip id="51" type="toy_car" depart="254.21" from="E7" to="E7.61"/>
    <trip id="52" type="toy_car" depart="259.48" from="E7" to="E8"/>
    <trip id="53" type="toy_car" depart="265.62" from="E7" to="E7.61"/>
    <trip id="54" type="toy_car" depart="270.61" from="-E7" to="E8"/>
    <trip id="55" type="toy_car" depart="275.25" from="E7" to="E8"/>
    <trip id="56" type="toy_car" depart="280.68" from="-E7" to="E8"/>
    <trip id="57" type="toy_car" depart="285.92" from="-E8" to="-E7.68"/>
    <trip id="58" type="toy_car" depart="290.61" from="E7" to="E8"/>
    <trip id="59" type="toy_car" depart="294.12" from="-E7" to="-E9"/>
    <trip id="60" type="toy_car" depart="300.71" from="E9" to="-E7.68"/>
    <trip id="61" type="toy_car" depart="305.07" from="-E7" to="-E7.68"/>
    <trip id="62" type="toy_car" depart="310.74" from="-E8" to="E7.61"/>
    <trip id="63" type="toy_car" depart="315.11" from="E9" to="E8"/>
    <trip id="64" type="toy_car" depart="319.05" from="E7" to="E8"/>
    <trip id="65" type="toy_car" depart="325.99" from="-E8" to="-E9"/>
    <trip id="66" type="toy_car" depart="329.53" from="-E7" to="-E9"/>
    <trip id="67" type="toy_car" depart="334.07" from="E7" to="E8"/>
    <trip id="68" type="toy_car" depart="340.38" from="-E8" to="-E7.68"/>
    <trip id="69" type="toy_car" depart="345.31" from="-E8" to="-E9"/>
    <trip id="70" type="toy_car" depart="350.99" from="-E7" to="-E7.68"/>
    <trip id="71" type="toy_car" depart="354.56" from="E7" to="E7.61"/>
    <trip id="72" type="toy_car" depart="359.46" from="E7" to="E7.61"/>
    <trip id="73" type="toy_car" depart="364.79" from="-E8" to="-E7.68"/>
    <trip id="74" type="toy_car" depart="370.35" from="E9" to="E8"/>
    <trip id="75" type="toy_car" depart="374.29" from="-E7" to="-E9"/>
    <trip id="76" type="toy_car" depart="380.04" from="-E8" to="E7.61"/>
    <trip id="77" type="toy_car" depart="385.40" from="E9" to="E7.61"/>
    <trip id="78" type="toy_car" depart="390.73" from="-E7" to="-E7.68"/>
    <trip id="79" type="toy_car" depart="394.56" from="-E7" to="-E7.68"/>
    <trip id="80" type="toy_car" depart="399.70" from="-E7" to="-E7.68"/>
    <trip id="81" type="toy_car" depart="405.42" from="E7" to="E7.61"/>
    <trip id="82" type="toy_car" depart="410.18" from="E9" to="-E7.68"/>
    <trip id="83" type="toy_car" depart="414.04" from="E9" to="-E7.68"/>
    <trip id="84" type="toy_car" depart="420.29" from="-E7" to="E8"/>
    <trip id="85" type="toy_car" depart="425.04" from="E9" to="E8"/>
    <trip id="86" type="toy_car" depart="430.44" from="-E8" to="-E7.68"/>
    <trip id="87" type="toy_car" depart="434.20" from="-E8" to="-E9"/>
    <trip id="88" type="toy_car" depart="439.15" from="E7" to="E7.61"/>
    <trip id="89" type="toy_car" depart="445.83" from="E7" to="E8"/>
    <trip id="90" type="toy_car" depart="450.12" from="E7" to="E7.61"/>
    <trip id="91" type="toy_car" depart="454.09" from="-E8" to="E7.61"/>
    <trip id="92" type="toy_car" depart="459.17" from="-E7" to="-E7.68"/>
    <trip id="93" type="toy_car" depart="465.63" from="-E7" to="-E9"/>
    <trip id="94" type="toy_car" depart="469.86" from="E7" to="E8"/>
    <trip id="95" type="toy_car" depart="475.51" from="-E7" to="-E7.68"/>
    <trip id="96" type="toy_car" depart="480.89" from="-E8" to="-E9"/>
    <trip id="97" type="toy_car" depart="484.98" from="E7" to="E8"/>
    <trip id="98" type="toy_car" depart="490.16" from="-E7" to="E8"/>
    <trip id="99" type="toy_car" depart="494.87" from="E9" to="-E7.68"/>
    <trip id="100" type="toy_car" depart="500.18" from="E9" to="-E7.68"/>
    <trip id="101" type="toy_car" depart="505.28" from="E7" to="E7.61"/>
    <trip id="102" type="toy_car" depart="510.47" from="-E7" to="-E7.68"/>
    <trip id="103" type="toy_car" depart="515.33" from="E7" to="-E9"/>
    <trip id="104" type="toy_car" depart="519.08" from="E9" to="-E7.68"/>
    <trip id="105" type="toy_car" depart="524.39" from="E7" to="-E9"/>
    <trip id="106" type="toy_car" depart="529.17" from="E9" to="-E7.68"/>
    <trip id="107" type="toy_car" depart="534.23" from="-E7" to="E8"/>
    <trip id="108" type="toy_car" depart="539.38" from="E7" to="E8"/>
    <trip id="109" type="toy_car" depart="545.27" from="-E7" to="-E7.68"/>
    <trip id="110" type="toy_car" depart="549.80" from="E9" to="E7.61"/>
    <trip id="111" type="toy_car" depart="554.77" from="E7" to="-E9"/>
    <trip id="112" type="toy_car" depart="559.94" from="-E7" to="-E7.68"/>
    <trip id="113" type="toy_car" depart="565.56" from="E9" to="E7.61"/>
    <trip id="114" type="toy_car" depart="570.72" from="E9" to="-E7.68"/>
    <trip id="115" type="toy_car" depart="575.28" from="-E7" to="-E7.68"/>
    <trip id="116" type="toy_car" depart="579.89" from="E7" to="-E9"/>
    <trip id="117" type="toy_car" depart="584.90" from="E7" to="E7.61"/>
    <trip id="118" type="toy_car" depart="589.05" from="E7" to="E8"/>
    <trip id="119" type="toy_car" depart="594.55" from="-E8" to="-E7.68"/>
    <trip id="120" type="toy_car" depart="600.28" from="E7" to="E8"/>
    <trip id="121" type="toy_car" depart="604.74" from="-E8" to="-E9"/>
    <trip id="122" type="toy_car" depart="610.06" from="-E8" to="-E7.68"/>
    <trip id="123" type="toy_car" depart="615.22" from="-E7" to="-E9"/>
    <trip id="124" type="toy_car" depart="620.45" from="-E7" to="-E9"/>
    <trip id="125" type="toy_car" depart="625.53" from="E9" to="E7.61"/>
    <trip id="126" type="toy_car" depart="630.82" from="-E8" to="E7.61"/>
    <trip id="127" type="toy_car" depart="634.21" from="E9" to="E8"/>
    <trip id="128" type="toy_car" depart="640.65" from="E7" to="E7.61"/>
    <trip id="129" type="toy_car" depart="644.35" from="-E8" to="-E7.68"/>
    <trip id="130" type="toy_car" depart="650.31" from="E7" to="E8"/>
    <trip id="131" type="toy_car" depart="655.88" from="E9" to="E7.61"/>
    <trip id="132" type="toy_car" depart="660.11" from="-E8" to="E7.61"/>
    <trip id="133" type="toy_car" depart="665.22" from="-E7" to="E8"/>
    <trip id="134" type="toy_car" depart="670.41" from="-E7" to="-E9"/>
    <trip id="135" type="toy_car" depart="674.37" from="-E7" to="-E9"/>
    <trip id="136" type="toy_car" depart="680.63" from="E7" to="-E9"/>
    <trip id="137" type="toy_car" depart="685.01" from="-E8" to="-E7.68"/>
    <trip id="138" type="toy_car" depart="690.47" from="-E8" to="E7.61"/>
    <trip id="139" type="toy_car" depart="694.10" from="E9" to="E7.61"/>
    <trip id="140" type="toy_car" depart="699.71" from="-E8" to="E7.61"/>
</routes>