<?xml version="1.0" encoding="UTF-8"?>

<routes xmlns:xsi="http://www.w3.org/2001/XMLSchema-instance" xsi:noNamespaceSchemaLocation="http://sumo.dlr.de/xsd/routes_file.xsd">
    <vType id="toy_car" maxSpeed="13.0" accel="1" decel="1"/>

    <trip id="0" type="toy_car" depart="0.00" from="-E8" to="-E9"/>
    <trip id="1" type="toy_car" depart="4.40" from="E9" to="E7.61"/>
    <trip id="2" type="toy_car" depart="10.42" from="-E8" to="-E7.68"/>
    <trip id="3" type="toy_car" depart="15.20" from="-E8" to="-E9"/>
    <trip id="4" type="toy_car" depart="20.20" from="-E7" to="-E9"/>
    <trip id="5" type="toy_car" depart="24.09" from="E9" to="E7.61"/>
    <trip id="6" type="toy_car" depart="30.04" from="-E8" to="-E7.68"/>
    <trip id="7" type="toy_car" depart="35.38" from="-E7" to="-E9"/>
    <trip id="8" type="toy_car" depart="39.90" from="E9" to="E7.61"/>
    <trip id="9" type="toy_car" depart="44.12" from="-E7" to="E8"/>
    <trip id="10" type="toy_car" depart="50.83" from="E9" to="E8"/>
    <trip id="11" type="toy_car" depart="54.70" from="-E8" to="E7.61"/>
    <trip id="12" type="toy_car" depart="59.33" from="-E8" to="-E7.68"/>
    <trip id="13" type="toy_car" depart="64.79" from="-E8" to="-E9"/>
    <trip id="14" type="toy_car" depart="70.57" from="-E8" to="-E9"/>
    <trip id="15" type="toy_car" depart="74.25" from="-E7" to="-E9"/>
    <trip id="16" type="toy_car" depart="79.07" from="E9" to="E8"/>
    <trip id="17" type="toy_car" depart="85.58" from="E7" to="E8"/>
    <trip id="18" type="toy_car" depart="89.55" from="-E8" to="-E7.68"/>
    <trip id="19" type="toy_car" depart="94.11" from="-E8" to="-E9"/>
    <trip id="20" type="toy_car" depart="100.91" from="E9" to="-E7.68"/>
    <trip id="21" type="toy_car" depart="105.09" from="E9" to="E8"/>
    <trip id="22" type="toy_car" depart="110.25" from="E7" to="E7.61"/>
    <trip id="23" type="toy_car" depart="114.40" from="E7" to="E7.61"/>
    <trip id="24" type="toy_car" depart="120.95" from="-E8" to="-E7.68"/>
    <trip id="25" type="toy_car" depart="125.54" from="E7" to="-E9"/>
    <trip id="26" type="toy_car" depart="129.22" from="E9" to="E7.61"/>
    <trip id="27" type="toy_car" depart="135.14" from="-E8" to="E7.61"/>
    <trip id="28" type="toy_car" depart="139.78" from="-E8" to="-E7.68"/>
    <trip id="29" type="toy_car" depart="145.32" from="-E8" to="-E9"/>
    <trip id="30" type="toy_car" depart="149.76" from="-E7" to="-E9"/>
    <trip id="31" type="toy_car" depart="154.60" from="E9" to="E8"/>
    <trip id="32" type="toy_car" depart="160.14" from="E9" to="E7.61"/>
    <trip id="33" type="toy_car" depart="165.91" from="-E7" to="E8"/>
    <trip id="34" type="toy_car" depart="170.95" from="E7" to="E7.61"/>
    <trip id="35" type="toy_car" depart="174.77" from="-E7" to="-E9"/>
    <trip id="36" type="toy_car" depart="180.17" from="E7" to="E8"/>
    <trip id="37" type="toy_car" depart="184.55" from="-E7" to="E8"/>
    <trip id="38" type="toy_car" depart="189.09" from="-E7" to="-E7.68"/>
    <trip id="39" type="toy_car" depart="194.65" from="-E7" to="-E7.68"/>
    <trip id="40" type="toy_car" depart="199.54" from="E7" to="E8"/>
    <trip id="41" type="toy_car" depart="204.58" from="E7" to="-E9"/>
    <trip id="42" type="toy_car" depart="210.84" from="-E8" to="E7.61"/>
    <trip id="43" type="toy_car" depart="214.50" from="E7" to="E8"/>
    <trip id="44" type="toy_car" depart="220.57" from="-E7" to="-E7.68"/>
    <trip id="45" type="toy_car" depart="225.34" from="-E8" to="-E9"/>
    <trip id="46" type="toy_car" depart="230.59" from="E7" to="-E9"/>
    <trip id="47" type="toy_car" depart="235.92" from="E7" to="-E9"/>
    <trip id="48" type="toy_car" depart="239.02" from="E9" to="E8"/>
    <trip id="49" type="toy_car" depart="244.50" from="E9" to="E7.61"/>
    <trip id="50" type="toy_car" depart="250.81" from="E7" to="E7.61"/>
    <trip id="51" type="toy_car" depart="255.94" from="-E7" to="E8"/>
    <trip id="52" type="toy_car" depart="260.29" from="-E8" to="E7.61"/>
    <trip id="53" type="toy_car" depart="264.45" from="-E7" to="E8"/>
    <trip id="54" type="toy_car" depart="269.87" from="-E7" to="E8"/>
    <trip id="55" type="toy_car" depart="274.32" from="E7" to="-E9"/>
    <trip id="56" type="toy_car" depart="280.52" from="-E8" to="-E7.68"/>
    <trip id="57" type="toy_car" depart="284.11" from="E9" to="E8"/>
    <trip id="58" type="toy_car" depart="289.74" from="E7" to="E7.61"/>
    <trip id="59" type="toy_car" depart="294.16" from="E7" to="E7.61"/>
    <trip id="60" type="toy_car" depart="300.17" from="-E7" to="-E7.68"/>
    <trip id="61" type="toy_car" depart="305.12" from="-E7" to="-E9"/>
    <trip id="62" type="toy_car" depart="310.41" from="E7" to="E7.61"/>
    <trip id="63" type="toy_car" depart="315.47" from="-E7" to="E8"/>
    <trip id="64" type="toy_car" depart="319.97" from="-E8" to="E7.61"/>
    <trip id="65" type="toy_car" depart="325.63" from="E9" to="-E7.68"/>
    <trip id="66" type="toy_car" depart="329.15" from="-E8" to="E7.61"/>
    <trip id="67" type="toy_car" depart="334.14" from="E9" to="E7.61"/>
    <trip id="68" type="toy_car" depart="339.98" from="-E7" to="-E7.68"/>
    <trip id="69" type="toy_car" depart="344.84" from="E9" to="E7.61"/>
    <trip id="70" type="toy_car" depart="350.49" from="-E7" to="E8"/>
    <trip id="71" type="toy_car" depart="354.62" from="-E7" to="-E9"/>
    <trip id="72" type="toy_car" depart="359.76" from="-E8" to="-E9"/>
    <trip id="73" type="toy_car" depart="365.94" from="-E8" to="-E7.68"/>
    <trip id="74" type="toy_car" depart="370.50" from="-E7" to="-E7.68"/>
    <trip id="75" type="toy_car" depart="375.78" from="E7" to="E7.61"/>
    <trip id="76" type="toy_car" depart="379.94" from="-E7" to="-E7.68"/>
    <trip id="77" type="toy_car" depart="385.83" from="-E7" to="-E9"/>
    <trip id="78" type="toy_car" depart="390.09" from="-E8" to="E7.61"/>
    <trip id="79" type="toy_car" depart="395.60" from="E9" to="E7.61"/>
    <trip id="80" type="toy_car" depart="399.39" from="-E7" to="-E7.68"/>
    <trip id="81" type="toy_car" depart="404.36" from="E9" to="E7.61"/>
    <trip id="82" type="toy_car" depart="409.23" from="-E7" to="E8"/>
    <trip id="83" type="toy_car" depart="414.64" from="-E8" to="-E7.68"/>
    <trip id="84" type="toy_car" depart="419.00" from="-E7" to="E8"/>
    <trip id="85" type="toy_car" depart="425.07" from="E9" to="E8"/>
    <trip id="86" type="toy_car" depart="430.88" from="-E8" to="E7.61"/>
    <trip id="87" type="toy_car" depart="434.59" from="-E7" to="E8"/>
    <trip id="88" type="toy_car" depart="440.31" from="-E7" to="-E9"/>
    <trip id="89" type="toy_car" depart="444.86" from="-E7" to="-E9"/>
    <trip id="90" type="toy_car" depart="450.63" from="-E7" to="E8"/>
    <trip id="91" type="toy_car" depart="455.78" from="E7" to="E7.61"/>
    <trip id="92" type="toy_car" depart="460.63" from="-E8" to="E7.61"/>
    <trip id="93" type="toy_car" depart="464.28" from="-E7" to="-E7.68"/>
    <trip id="94" type="toy_car" depart="470.42" from="E9" to="-E7.68"/>
    <trip id="95" type="toy_car" depart="474.81" from="E9" to="E7.61"/>
    <trip id="96" type="toy_car" depart="479.83" from="-E8" to="E7.61"/>
    <trip id="97" type="toy_car" depart="484.43" from="-E7" to="E8"/>
    <trip id="98" type="toy_car" depart="489.11" from="E7" to="-E9"/>
    <trip id="99" type="toy_car" depart="495.93" from="E7" to="-E9"/>
    <trip id="100" type="toy_car" depart="500.57" from="-E8" to="-E7.68"/>
    <trip id="101" type="toy_car" depart="504.23" from="-E8" to="-E7.68"/>
    <trip id="102" type="toy_car" depart="510.55" from="E7" to="E7.61"/>
    <trip id="103" type="toy_car" depart="514.51" from="-E7" to="-E7.68"/>
    <trip id="104" type="toy_car" depart="520.06" from="-E7" to="-E7.68"/>
    <trip id="105" type="toy_car" depart="524.45" from="-E8" to="-E7.68"/>
    <trip id="106" type="toy_car" depart="529.84" from="E7" to="E7.61"/>
    <trip id="107" type="toy_car" depart="535.68" from="E7" to="E8"/>
    <trip id="108" type="toy_car" depart="540.02" from="-E7" to="-E9"/>
    <trip id="109" type="toy_car" depart="545.19" from="E9" to="-E7.68"/>
    <trip id="110" type="toy_car" depart="550.52" from="E7" to="E8"/>
    <trip id="111" type="toy_car" depart="555.80" from="-E8" to="E7.61"/>
    <trip id="112" type="toy_car" depart="559.93" from="-E8" to="-E9"/>
    <trip id="113" type="toy_car" depart="565.72" from="-E7" to="-E9"/>
    <trip id="114" type="toy_car" depart="570.66" from="-E8" to="-E7.68"/>
    <trip id="115" type="toy_car" depart="574.42" from="E9" to="E7.61"/>
    <trip id="116" type="toy_car" depart="580.64" from="E9" to="E8"/>
    <trip id="117" type="toy_car" depart="584.80" from="E9" to="E8"/>
    <trip id="118" type="toy_car" depart="589.42" from="E7" to="E7.61"/>
    <trip id="119" type="toy_car" depart="594.16" from="-E8" to="-E7.68"/>
    <trip id="120" type="toy_car" depart="599.25" from="-E8" to="-E7.68"/>
    <trip id="121" type="toy_car" depart="604.19" from="E7" to="-E9"/>
    <trip id="122" type="toy_car" depart="609.61" from="E7" to="E8"/>
    <trip id="123" type="toy_car" depart="614.11" from="-E8" to="-E7.68"/>
    <trip id="124" type="toy_car" depart="620.10" from="-E8" to="-E7.68"/>
    <trip id="125" type="toy_car" depart="624.69" from="-E7" to="-E9"/>
    <trip id="126" type="toy_car" depart="629.22" from="E7" to="E7.61"/>
    <trip id="127" type="toy_car" depart="635.66" from="-E8" to="-E7.68"/>
    <trip id="128" type="toy_car" depart="640.18" from="-E7" to="-E7.68"/>
    <trip id="129" type="toy_car" depart="644.59" from="E9" to="-E7.68"/>
    <trip id="130" type="toy_car" depart="649.41" from="E7" to="E8"/>
    <trip id="131" type="toy_car" depart="655.00" from="E9" to="E7.61"/>
    <trip id="132" type="toy_car" depart="660.10" from="-E7" to="-E7.68"/>
    <trip id="133" type="toy_car" depart="664.38" from="-E8" to="-E7.68"/>
    <trip id="134" type="toy_car" depart="669.22" from="E7" to="-E9"/>
    <trip id="135" type="toy_car" depart="674.70" from="-E8" to="-E7.68"/>
    <trip id="136" type="toy_car" depart="679.88" from="E9" to="E7.61"/>
    <trip id="137" type="toy_car" depart="684.38" from="E9" to="-E7.68"/>
    <trip id="138" type="toy_car" depart="690.08" from="-E7" to="-E7.68"/>
    <trip id="139" type="toy_car" depart="694.01" from="E9" to="-E7.68"/>
    <trip id="140" type="toy_car" depart="700.54" from="E7" to="E8"/>
</routes>