<configuration>
    <input>
        <net-file value="intersection.net.xml"/>
        <route-files value="simTraffic/very_heavy_traffic_5.rou.xml,pedestrians.rou.xml"/>
    </input>
    <time>
        <begin value="0"/>
    </time>
</configuration>