<?xml version="1.0" encoding="UTF-8"?>

<!-- generated on 2026-04-02T23:35:47.096811-05:00 by Eclipse SUMO netedit 1.26.0
<neteditConfiguration xmlns:xsi="http://www.w3.org/2001/XMLSchema-instance" xsi:noNamespaceSchemaLocation="http://sumo.dlr.de/xsd/neteditConfiguration.xsd">

    <input>
        <sumo-net-file value="C:\Users\david\Desktop\CarDetection_DecisionModel_Final\DecisionModel\Dundas_Church.net.xml"/>
    </input>

    <output>
        <output-file value="C:\Users\david\Desktop\CarDetection_DecisionModel_Final\DecisionModel\Dundas_Church.net.xml"/>
    </output>

    <processing>
        <geometry.min-radius.fix.railways value="false"/>
        <geometry.avoid-overlap value="false"/>
        <geometry.max-grade.fix value="false"/>
        <offset.disable-normalization value="true"/>
        <lefthand value="0"/>
    </processing>

    <junctions>
        <no-internal-links value="false"/>
        <no-turnarounds value="true"/>
        <junctions.corner-detail value="5"/>
        <junctions.limit-turn-speed value="5.50"/>
        <rectangular-lane-cut value="0"/>
    </junctions>

    <pedestrian>
        <walkingareas value="1"/>
    </pedestrian>

</neteditConfiguration>
-->

<net version="1.20" junctionCornerDetail="5" walkingareas="true" limitTurnSpeed="5.50" avoidOverlap="0" xmlns:xsi="http://www.w3.org/2001/XMLSchema-instance" xsi:noNamespaceSchemaLocation="http://sumo.dlr.de/xsd/net_file.xsd">

    <location netOffset="0.00,0.00" convBoundary="-120.00,-177.00,196.00,179.00" origBoundary="-10000000000.00,-10000000000.00,10000000000.00,10000000000.00" projParameter="!"/>

    <edge id=":J12_w0" function="walkingarea">
        <lane id=":J12_w0_0" index="0" allow="pedestrian" speed="2.78" length="14.80" width="2.00" shape="-119.91,-6.40 -119.88,-8.40 -120.11,8.40 -120.08,6.40"/>
    </edge>
    <edge id=":J13_w0" function="walkingarea">
        <lane id=":J13_w0_0" index="0" allow="pedestrian" speed="2.78" length="14.80" width="2.00" shape="196.05,6.40 196.07,8.40 195.92,-8.40 195.94,-6.40"/>
    </edge>
    <edge id=":J15_w0" function="walkingarea">
        <lane id=":J15_w0_0" index="0" allow="pedestrian" speed="2.78" length="14.80" width="2.00" shape="6.40,-176.99 8.40,-176.99 -8.40,-177.01 -6.40,-177.01"/>
    </edge>
    <edge id=":J18_w0" function="walkingarea">
        <lane id=":J18_w0_0" index="0" allow="pedestrian" speed="2.78" length="14.80" width="2.00" shape="-6.40,179.00 -8.40,179.00 8.40,179.00 6.40,179.00"/>
    </edge>
    <edge id=":clusterJ14_J16_J17_0" function="internal">
        <lane id=":clusterJ14_J16_J17_0_0" index="0" disallow="pedestrian" speed="6.64" length="5.11" shape="-4.80,11.87 -5.17,9.42 -6.29,7.66 -6.76,7.39"/>
    </edge>
    <edge id=":clusterJ14_J16_J17_1" function="internal">
        <lane id=":clusterJ14_J16_J17_1_0" index="0" disallow="pedestrian" speed="13.89" length="20.65" shape="-4.80,11.87 -4.97,-8.78"/>
    </edge>
    <edge id=":clusterJ14_J16_J17_2" function="internal">
        <lane id=":clusterJ14_J16_J17_2_0" index="0" disallow="pedestrian" speed="9.23" length="10.17" shape="-1.60,11.87 -0.86,6.75 1.38,3.07 1.97,2.71"/>
    </edge>
    <edge id=":clusterJ14_J16_J17_12" function="internal">
        <lane id=":clusterJ14_J16_J17_12_0" index="0" disallow="pedestrian" speed="6.64" length="4.23" shape="-6.76,7.39 -8.14,6.59 -10.74,6.20"/>
    </edge>
    <edge id=":clusterJ14_J16_J17_13" function="internal">
        <lane id=":clusterJ14_J16_J17_13_0" index="0" disallow="pedestrian" speed="9.23" length="8.92" shape="1.97,2.71 5.10,0.84 10.31,0.06"/>
    </edge>
    <edge id=":clusterJ14_J16_J17_3" function="internal">
        <lane id=":clusterJ14_J16_J17_3_0" index="0" disallow="pedestrian" speed="6.52" length="4.72" shape="10.37,6.26 7.93,6.63 6.19,7.68 6.08,7.87"/>
    </edge>
    <edge id=":clusterJ14_J16_J17_4" function="internal">
        <lane id=":clusterJ14_J16_J17_4_0" index="0" disallow="pedestrian" speed="13.89" length="21.11" shape="10.37,6.26 -10.74,6.20"/>
    </edge>
    <edge id=":clusterJ14_J16_J17_5" function="internal">
        <lane id=":clusterJ14_J16_J17_5_0" index="0" disallow="pedestrian" speed="9.23" length="10.38" shape="10.34,3.06 5.03,2.35 1.25,0.15 0.91,-0.40"/>
    </edge>
    <edge id=":clusterJ14_J16_J17_14" function="internal">
        <lane id=":clusterJ14_J16_J17_14_0" index="0" disallow="pedestrian" speed="6.52" length="4.28" shape="6.08,7.87 5.15,9.43 4.80,11.87"/>
    </edge>
    <edge id=":clusterJ14_J16_J17_15" function="internal">
        <lane id=":clusterJ14_J16_J17_15_0" index="0" disallow="pedestrian" speed="9.23" length="8.97" shape="0.91,-0.40 -1.02,-3.56 -1.77,-8.77"/>
    </edge>
    <edge id=":clusterJ14_J16_J17_6" function="internal">
        <lane id=":clusterJ14_J16_J17_6_0" index="0" disallow="pedestrian" speed="6.51" length="4.84" shape="4.63,-8.77 4.98,-6.29 6.04,-4.52 6.27,-4.38"/>
    </edge>
    <edge id=":clusterJ14_J16_J17_7" function="internal">
        <lane id=":clusterJ14_J16_J17_7_0" index="0" disallow="pedestrian" speed="13.89" length="20.64" shape="4.63,-8.77 4.80,11.87"/>
    </edge>
    <edge id=":clusterJ14_J16_J17_8" function="internal">
        <lane id=":clusterJ14_J16_J17_8_0" index="0" disallow="pedestrian" speed="9.21" length="10.21" shape="1.43,-8.77 0.66,-3.56 -1.61,0.14 -2.13,0.44"/>
    </edge>
    <edge id=":clusterJ14_J16_J17_16" function="internal">
        <lane id=":clusterJ14_J16_J17_16_0" index="0" disallow="pedestrian" speed="6.51" length="4.28" shape="6.27,-4.38 7.81,-3.47 10.28,-3.14"/>
    </edge>
    <edge id=":clusterJ14_J16_J17_17" function="internal">
        <lane id=":clusterJ14_J16_J17_17_0" index="0" disallow="pedestrian" speed="9.21" length="9.12" shape="-2.13,0.44 -5.40,2.33 -10.70,3.00"/>
    </edge>
    <edge id=":clusterJ14_J16_J17_9" function="internal">
        <lane id=":clusterJ14_J16_J17_9_0" index="0" disallow="pedestrian" speed="6.49" length="4.79" shape="-10.62,-3.21 -8.15,-3.53 -6.39,-4.56 -6.26,-4.78"/>
    </edge>
    <edge id=":clusterJ14_J16_J17_10" function="internal">
        <lane id=":clusterJ14_J16_J17_10_0" index="0" disallow="pedestrian" speed="13.89" length="20.91" shape="-10.62,-3.21 10.28,-3.14"/>
    </edge>
    <edge id=":clusterJ14_J16_J17_11" function="internal">
        <lane id=":clusterJ14_J16_J17_11_0" index="0" disallow="pedestrian" speed="9.32" length="10.38" shape="-10.66,-0.01 -5.30,0.80 -1.47,3.05 -1.20,3.48"/>
    </edge>
    <edge id=":clusterJ14_J16_J17_18" function="internal">
        <lane id=":clusterJ14_J16_J17_18_0" index="0" disallow="pedestrian" speed="6.49" length="4.28" shape="-6.26,-4.78 -5.33,-6.31 -4.97,-8.78"/>
    </edge>
    <edge id=":clusterJ14_J16_J17_19" function="internal">
        <lane id=":clusterJ14_J16_J17_19_0" index="0" disallow="pedestrian" speed="9.32" length="9.03" shape="-1.20,3.48 0.83,6.74 1.60,11.87"/>
    </edge>
    <edge id=":clusterJ14_J16_J17_c0" function="crossing" crossingEdges="-E9 E9">
        <lane id=":clusterJ14_J16_J17_c0_0" index="0" allow="pedestrian" speed="2.78" length="12.80" width="4.00" shape="6.40,9.87 -6.40,9.87" outlineShape="6.50,11.87 -6.50,11.87 -6.52,10.65 -6.88,9.64 -7.49,8.85 -8.34,8.28 -9.43,7.93 -10.03,7.87 10.22,7.87 9.16,7.98 8.17,8.32 7.40,8.88 6.84,9.66 6.51,10.66"/>
    </edge>
    <edge id=":clusterJ14_J16_J17_c1" function="crossing" crossingEdges="E7.61 -E7">
        <lane id=":clusterJ14_J16_J17_c1_0" index="0" allow="pedestrian" speed="2.78" length="12.60" width="4.00" shape="8.27,-4.72 8.38,7.87" outlineShape="10.27,-4.84 10.38,7.96 9.16,7.98 8.17,8.32 7.40,8.88 6.84,9.66 6.51,10.66 6.41,11.72 6.23,-8.70 6.34,-7.52 6.67,-6.51 7.23,-5.73 8.02,-5.17 9.03,-4.84"/>
    </edge>
    <edge id=":clusterJ14_J16_J17_c2" function="crossing" crossingEdges="E8 -E8">
        <lane id=":clusterJ14_J16_J17_c2_0" index="0" allow="pedestrian" speed="2.78" length="12.80" width="4.00" shape="-6.58,-6.78 6.22,-6.76" outlineShape="-6.57,-8.78 6.23,-8.76 6.34,-7.52 6.67,-6.51 7.23,-5.73 8.02,-5.17 8.32,-5.07 6.22,-4.76 -6.58,-4.78 -8.69,-5.12 -8.36,-5.22 -7.58,-5.77 -7.02,-6.55 -6.69,-7.55"/>
    </edge>
    <edge id=":clusterJ14_J16_J17_c3" function="crossing" crossingEdges="-E7.68 E7">
        <lane id=":clusterJ14_J16_J17_c3_0" index="0" allow="pedestrian" speed="2.78" length="12.61" width="4.00" shape="-8.76,7.83 -8.60,-4.78" outlineShape="-10.77,7.90 -10.60,-4.91 -9.37,-4.90 -8.36,-5.22 -7.58,-5.77 -7.02,-6.55 -6.92,-6.87 -6.60,-4.75 -6.76,7.86 -6.80,9.86 -6.88,9.64 -7.49,8.85 -8.34,8.28 -9.43,7.93"/>
    </edge>
    <edge id=":clusterJ14_J16_J17_w0" function="walkingarea">
        <lane id=":clusterJ14_J16_J17_w0_0" index="0" allow="pedestrian" speed="2.78" length="3.49" width="4.00" shape="-10.76,7.80 -10.79,9.80 -8.40,11.87 -6.40,11.87 -6.52,10.65 -6.88,9.64 -7.49,8.85 -8.34,8.28 -9.43,7.93"/>
    </edge>
    <edge id=":clusterJ14_J16_J17_w1" function="walkingarea">
        <lane id=":clusterJ14_J16_J17_w1_0" index="0" allow="pedestrian" speed="2.78" length="3.30" width="4.00" shape="6.40,11.87 8.40,11.87 10.40,9.86 10.38,7.86 9.16,7.98 8.17,8.32 7.40,8.88 6.84,9.66 6.51,10.66"/>
    </edge>
    <edge id=":clusterJ14_J16_J17_w2" function="walkingarea">
        <lane id=":clusterJ14_J16_J17_w2_0" index="0" allow="pedestrian" speed="2.78" length="3.33" width="4.00" shape="10.27,-4.74 10.25,-6.74 8.23,-8.76 6.23,-8.76 6.34,-7.52 6.67,-6.51 7.23,-5.73 8.02,-5.17 9.03,-4.84"/>
    </edge>
    <edge id=":clusterJ14_J16_J17_w3" function="walkingarea">
        <lane id=":clusterJ14_J16_J17_w3_0" index="0" allow="pedestrian" speed="2.78" length="3.30" width="4.00" shape="-6.57,-8.78 -8.57,-8.78 -10.57,-6.81 -10.60,-4.81 -9.37,-4.90 -8.36,-5.22 -7.58,-5.77 -7.02,-6.55 -6.69,-7.55"/>
    </edge>

    <edge id="-E7" from="J13" to="clusterJ14_J16_J17" priority="-1" shape="196.00,0.00 -0.07,1.54">
        <lane id="-E7_0" index="0" allow="pedestrian" speed="13.89" length="185.68" width="2.00" shape="196.06,7.40 10.39,8.86"/>
        <lane id="-E7_1" index="1" disallow="pedestrian" speed="13.89" length="185.68" shape="196.04,4.80 10.37,6.26"/>
        <lane id="-E7_2" index="2" disallow="pedestrian" speed="13.89" length="185.68" shape="196.01,1.60 10.34,3.06"/>
    </edge>
    <edge id="-E7.68" from="clusterJ14_J16_J17" to="J12" priority="-1" shape="-0.07,1.54 -120.00,0.00">
        <lane id="-E7.68_0" index="0" allow="pedestrian" speed="13.89" length="109.33" width="2.00" shape="-10.78,8.80 -120.10,7.40"/>
        <lane id="-E7.68_1" index="1" disallow="pedestrian" speed="13.89" length="109.33" shape="-10.74,6.20 -120.06,4.80"/>
        <lane id="-E7.68_2" index="2" disallow="pedestrian" speed="13.89" length="109.33" shape="-10.70,3.00 -120.02,1.60"/>
    </edge>
    <edge id="-E8" from="J15" to="clusterJ14_J16_J17" priority="-1" shape="0.00,-177.00 -0.18,-3.28">
        <lane id="-E8_0" index="0" allow="pedestrian" speed="13.89" length="168.23" width="2.00" shape="7.40,-176.99 7.23,-8.76"/>
        <lane id="-E8_1" index="1" disallow="pedestrian" speed="13.89" length="168.23" shape="4.80,-177.00 4.63,-8.77"/>
        <lane id="-E8_2" index="2" disallow="pedestrian" speed="13.89" length="168.23" shape="1.60,-177.00 1.43,-8.77"/>
    </edge>
    <edge id="-E9" from="clusterJ14_J16_J17" to="J18" priority="-1">
        <lane id="-E9_0" index="0" allow="pedestrian" speed="13.89" length="167.13" width="2.00" shape="7.40,11.87 7.40,179.00"/>
        <lane id="-E9_1" index="1" disallow="pedestrian" speed="13.89" length="167.13" shape="4.80,11.87 4.80,179.00"/>
        <lane id="-E9_2" index="2" disallow="pedestrian" speed="13.89" length="167.13" shape="1.60,11.87 1.60,179.00"/>
    </edge>
    <edge id="E7" from="J12" to="clusterJ14_J16_J17" priority="-1" shape="-120.00,0.00 0.25,1.75">
        <lane id="E7_0" index="0" allow="pedestrian" speed="13.89" length="109.32" width="2.00" shape="-119.89,-7.40 -10.59,-5.81"/>
        <lane id="E7_1" index="1" disallow="pedestrian" speed="13.89" length="109.32" shape="-119.93,-4.80 -10.62,-3.21"/>
        <lane id="E7_2" index="2" disallow="pedestrian" speed="13.89" length="109.32" shape="-119.98,-1.60 -10.66,-0.01"/>
    </edge>
    <edge id="E7.61" from="clusterJ14_J16_J17" to="J13" priority="-1" shape="0.25,1.75 196.00,0.00">
        <lane id="E7.61_0" index="0" allow="pedestrian" speed="13.89" length="185.68" width="2.00" shape="10.26,-5.74 195.93,-7.40"/>
        <lane id="E7.61_1" index="1" disallow="pedestrian" speed="13.89" length="185.68" shape="10.28,-3.14 195.96,-4.80"/>
        <lane id="E7.61_2" index="2" disallow="pedestrian" speed="13.89" length="185.68" shape="10.31,0.06 195.99,-1.60"/>
    </edge>
    <edge id="E8" from="clusterJ14_J16_J17" to="J15" priority="-1" shape="-0.18,-3.28 0.00,-177.00">
        <lane id="E8_0" index="0" allow="pedestrian" speed="13.89" length="168.23" width="2.00" shape="-7.57,-8.78 -7.40,-177.01"/>
        <lane id="E8_1" index="1" disallow="pedestrian" speed="13.89" length="168.23" shape="-4.97,-8.78 -4.80,-177.00"/>
        <lane id="E8_2" index="2" disallow="pedestrian" speed="13.89" length="168.23" shape="-1.77,-8.77 -1.60,-177.00"/>
    </edge>
    <edge id="E9" from="J18" to="clusterJ14_J16_J17" priority="-1">
        <lane id="E9_0" index="0" allow="pedestrian" speed="13.89" length="167.13" width="2.00" shape="-7.40,179.00 -7.40,11.87"/>
        <lane id="E9_1" index="1" disallow="pedestrian" speed="13.89" length="167.13" shape="-4.80,179.00 -4.80,11.87"/>
        <lane id="E9_2" index="2" disallow="pedestrian" speed="13.89" length="167.13" shape="-1.60,179.00 -1.60,11.87"/>
    </edge>

    <tlLogic id="clusterJ14_J16_J17" type="static" programID="0" offset="0">
        <phase duration="28" state="gGgrrrgGgrrrrGrG"/>
        <phase duration="5"  state="gGgrrrgGgrrrrrrr"/>
        <phase duration="3"  state="yyyrrryyyrrrrrrr"/>
        <phase duration="28" state="rrrgGgrrrgGgGrGr"/>
        <phase duration="5"  state="rrrgGgrrrgGgrrrr"/>
        <phase duration="3"  state="rrryyyrrryyyrrrr"/>
    </tlLogic>

    <junction id="J12" type="dead_end" x="-120.00" y="0.00" incLanes="-E7.68_0 -E7.68_1 -E7.68_2" intLanes="" shape="-120.00,0.00 -119.88,-8.40 -120.11,8.40"/>
    <junction id="J13" type="dead_end" x="196.00" y="0.00" incLanes="E7.61_0 E7.61_1 E7.61_2" intLanes="" shape="196.00,0.00 196.07,8.40 195.92,-8.40"/>
    <junction id="J15" type="dead_end" x="0.00" y="-177.00" incLanes="E8_0 E8_1 E8_2" intLanes="" shape="0.00,-177.00 -8.40,-177.01 0.00,-177.00"/>
    <junction id="J18" type="dead_end" x="0.00" y="179.00" incLanes="-E9_0 -E9_1 -E9_2" intLanes="" shape="0.00,179.00 8.40,179.00 0.00,179.00"/>
    <junction id="clusterJ14_J16_J17" type="traffic_light" x="0.00" y="0.00" incLanes="E9_0 E9_1 E9_2 -E7_0 -E7_1 -E7_2 -E8_0 -E8_1 -E8_2 E7_0 E7_1 E7_2 :clusterJ14_J16_J17_w1_0 :clusterJ14_J16_J17_w2_0 :clusterJ14_J16_J17_w3_0 :clusterJ14_J16_J17_w0_0" intLanes=":clusterJ14_J16_J17_12_0 :clusterJ14_J16_J17_1_0 :clusterJ14_J16_J17_13_0 :clusterJ14_J16_J17_14_0 :clusterJ14_J16_J17_4_0 :clusterJ14_J16_J17_15_0 :clusterJ14_J16_J17_16_0 :clusterJ14_J16_J17_7_0 :clusterJ14_J16_J17_17_0 :clusterJ14_J16_J17_18_0 :clusterJ14_J16_J17_10_0 :clusterJ14_J16_J17_19_0 :clusterJ14_J16_J17_c0_0 :clusterJ14_J16_J17_c1_0 :clusterJ14_J16_J17_c2_0 :clusterJ14_J16_J17_c3_0" shape="-8.40,11.87 8.40,11.87 8.62,10.76 8.90,10.37 9.29,10.09 9.79,9.92 10.40,9.86 10.25,-6.74 9.13,-6.96 8.73,-7.24 8.45,-7.63 8.28,-8.14 8.23,-8.76 -8.57,-8.78 -8.80,-7.67 -9.08,-7.29 -9.46,-7.01 -9.97,-6.86 -10.58,-6.81 -10.79,9.80 -9.46,10.05 -9.00,10.34 -8.67,10.74 -8.47,11.25">
        <request index="0"  response="1001000000000000" foes="1001000000010000" cont="1"/>
        <request index="1"  response="0101101000000000" foes="0101111100010000" cont="0"/>
        <request index="2"  response="0011100010100000" foes="0011100010110000" cont="1"/>
        <request index="3"  response="0011000010000000" foes="0011000010000000" cont="1"/>
        <request index="4"  response="1010000010000111" foes="1010100010000111" cont="0"/>
        <request index="5"  response="0110010110000100" foes="0110010110000100" cont="1"/>
        <request index="6"  response="0110000000000000" foes="0110010000000000" cont="1"/>
        <request index="7"  response="0101000000101000" foes="0101010000111100" cont="0"/>
        <request index="8"  response="1100100000100010" foes="1100110000100010" cont="1"/>
        <request index="9"  response="1100000000000010" foes="1100000000000010" cont="1"/>
        <request index="10" response="1010000111000010" foes="1010000111100010" cont="0"/>
        <request index="11" response="1001000100010110" foes="1001000100010110" cont="1"/>
        <request index="12" response="0000000000000000" foes="0000100010001111" cont="0"/>
        <request index="13" response="0000000000000000" foes="0000010001111100" cont="0"/>
        <request index="14" response="0000000000000000" foes="0000001111100010" cont="0"/>
        <request index="15" response="0000000000000000" foes="0000111100010001" cont="0"/>
    </junction>

    <junction id=":clusterJ14_J16_J17_12_0" type="internal" x="-6.76" y="7.39" incLanes=":clusterJ14_J16_J17_0_0" intLanes=":clusterJ14_J16_J17_4_0 :clusterJ14_J16_J17_8_0 :clusterJ14_J16_J17_c0_0 :clusterJ14_J16_J17_c3_0"/>
    <junction id=":clusterJ14_J16_J17_13_0" type="internal" x="1.97" y="2.71" incLanes=":clusterJ14_J16_J17_2_0 -E8_1" intLanes=":clusterJ14_J16_J17_4_0 :clusterJ14_J16_J17_5_0 :clusterJ14_J16_J17_6_0 :clusterJ14_J16_J17_7_0 :clusterJ14_J16_J17_10_0 :clusterJ14_J16_J17_11_0 :clusterJ14_J16_J17_c0_0 :clusterJ14_J16_J17_c1_0"/>
    <junction id=":clusterJ14_J16_J17_14_0" type="internal" x="6.08" y="7.87" incLanes=":clusterJ14_J16_J17_3_0" intLanes=":clusterJ14_J16_J17_7_0 :clusterJ14_J16_J17_11_0 :clusterJ14_J16_J17_c0_0 :clusterJ14_J16_J17_c1_0"/>
    <junction id=":clusterJ14_J16_J17_15_0" type="internal" x="0.91" y="-0.40" incLanes=":clusterJ14_J16_J17_5_0 E7_1" intLanes=":clusterJ14_J16_J17_1_0 :clusterJ14_J16_J17_2_0 :clusterJ14_J16_J17_7_0 :clusterJ14_J16_J17_8_0 :clusterJ14_J16_J17_9_0 :clusterJ14_J16_J17_10_0 :clusterJ14_J16_J17_c1_0 :clusterJ14_J16_J17_c2_0"/>
    <junction id=":clusterJ14_J16_J17_16_0" type="internal" x="6.27" y="-4.38" incLanes=":clusterJ14_J16_J17_6_0" intLanes=":clusterJ14_J16_J17_2_0 :clusterJ14_J16_J17_10_0 :clusterJ14_J16_J17_c1_0 :clusterJ14_J16_J17_c2_0"/>
    <junction id=":clusterJ14_J16_J17_17_0" type="internal" x="-2.13" y="0.44" incLanes=":clusterJ14_J16_J17_8_0 E9_1" intLanes=":clusterJ14_J16_J17_0_0 :clusterJ14_J16_J17_1_0 :clusterJ14_J16_J17_4_0 :clusterJ14_J16_J17_5_0 :clusterJ14_J16_J17_10_0 :clusterJ14_J16_J17_11_0 :clusterJ14_J16_J17_c2_0 :clusterJ14_J16_J17_c3_0"/>
    <junction id=":clusterJ14_J16_J17_18_0" type="internal" x="-6.26" y="-4.78" incLanes=":clusterJ14_J16_J17_9_0" intLanes=":clusterJ14_J16_J17_1_0 :clusterJ14_J16_J17_5_0 :clusterJ14_J16_J17_c2_0 :clusterJ14_J16_J17_c3_0"/>
    <junction id=":clusterJ14_J16_J17_19_0" type="internal" x="-1.20" y="3.48" incLanes=":clusterJ14_J16_J17_11_0 -E7_1" intLanes=":clusterJ14_J16_J17_1_0 :clusterJ14_J16_J17_2_0 :clusterJ14_J16_J17_3_0 :clusterJ14_J16_J17_4_0 :clusterJ14_J16_J17_7_0 :clusterJ14_J16_J17_8_0 :clusterJ14_J16_J17_c0_0 :clusterJ14_J16_J17_c3_0"/>

    <connection from="-E7" to="-E9" fromLane="1" toLane="1" via=":clusterJ14_J16_J17_3_0" tl="clusterJ14_J16_J17" linkIndex="3" dir="r" state="o"/>
    <connection from="-E7" to="-E7.68" fromLane="1" toLane="1" via=":clusterJ14_J16_J17_4_0" tl="clusterJ14_J16_J17" linkIndex="4" dir="s" state="o"/>
    <connection from="-E7" to="E8" fromLane="2" toLane="2" via=":clusterJ14_J16_J17_5_0" tl="clusterJ14_J16_J17" linkIndex="5" dir="l" state="o"/>
    <connection from="-E8" to="E7.61" fromLane="1" toLane="1" via=":clusterJ14_J16_J17_6_0" tl="clusterJ14_J16_J17" linkIndex="6" dir="r" state="o"/>
    <connection from="-E8" to="-E9" fromLane="1" toLane="1" via=":clusterJ14_J16_J17_7_0" tl="clusterJ14_J16_J17" linkIndex="7" dir="s" state="o"/>
    <connection from="-E8" to="-E7.68" fromLane="2" toLane="2" via=":clusterJ14_J16_J17_8_0" tl="clusterJ14_J16_J17" linkIndex="8" dir="l" state="o"/>
    <connection from="E7" to="E8" fromLane="1" toLane="1" via=":clusterJ14_J16_J17_9_0" tl="clusterJ14_J16_J17" linkIndex="9" dir="r" state="o"/>
    <connection from="E7" to="E7.61" fromLane="1" toLane="1" via=":clusterJ14_J16_J17_10_0" tl="clusterJ14_J16_J17" linkIndex="10" dir="s" state="o"/>
    <connection from="E7" to="-E9" fromLane="2" toLane="2" via=":clusterJ14_J16_J17_11_0" tl="clusterJ14_J16_J17" linkIndex="11" dir="l" state="o"/>
    <connection from="E9" to="-E7.68" fromLane="1" toLane="1" via=":clusterJ14_J16_J17_0_0" tl="clusterJ14_J16_J17" linkIndex="0" dir="r" state="o"/>
    <connection from="E9" to="E8" fromLane="1" toLane="1" via=":clusterJ14_J16_J17_1_0" tl="clusterJ14_J16_J17" linkIndex="1" dir="s" state="o"/>
    <connection from="E9" to="E7.61" fromLane="2" toLane="2" via=":clusterJ14_J16_J17_2_0" tl="clusterJ14_J16_J17" linkIndex="2" dir="l" state="o"/>

    <connection from=":clusterJ14_J16_J17_0" to="-E7.68" fromLane="0" toLane="1" via=":clusterJ14_J16_J17_12_0" dir="r" state="m"/>
    <connection from=":clusterJ14_J16_J17_12" to="-E7.68" fromLane="0" toLane="1" dir="r" state="m"/>
    <connection from=":clusterJ14_J16_J17_1" to="E8" fromLane="0" toLane="1" dir="s" state="M"/>
    <connection from=":clusterJ14_J16_J17_2" to="E7.61" fromLane="0" toLane="2" via=":clusterJ14_J16_J17_13_0" dir="l" state="m"/>
    <connection from=":clusterJ14_J16_J17_13" to="E7.61" fromLane="0" toLane="2" dir="l" state="m"/>
    <connection from=":clusterJ14_J16_J17_3" to="-E9" fromLane="0" toLane="1" via=":clusterJ14_J16_J17_14_0" dir="r" state="m"/>
    <connection from=":clusterJ14_J16_J17_14" to="-E9" fromLane="0" toLane="1" dir="r" state="m"/>
    <connection from=":clusterJ14_J16_J17_4" to="-E7.68" fromLane="0" toLane="1" dir="s" state="M"/>
    <connection from=":clusterJ14_J16_J17_5" to="E8" fromLane="0" toLane="2" via=":clusterJ14_J16_J17_15_0" dir="l" state="m"/>
    <connection from=":clusterJ14_J16_J17_15" to="E8" fromLane="0" toLane="2" dir="l" state="m"/>
    <connection from=":clusterJ14_J16_J17_6" to="E7.61" fromLane="0" toLane="1" via=":clusterJ14_J16_J17_16_0" dir="r" state="m"/>
    <connection from=":clusterJ14_J16_J17_16" to="E7.61" fromLane="0" toLane="1" dir="r" state="m"/>
    <connection from=":clusterJ14_J16_J17_7" to="-E9" fromLane="0" toLane="1" dir="s" state="M"/>
    <connection from=":clusterJ14_J16_J17_8" to="-E7.68" fromLane="0" toLane="2" via=":clusterJ14_J16_J17_17_0" dir="l" state="m"/>
    <connection from=":clusterJ14_J16_J17_17" to="-E7.68" fromLane="0" toLane="2" dir="l" state="m"/>
    <connection from=":clusterJ14_J16_J17_9" to="E8" fromLane="0" toLane="1" via=":clusterJ14_J16_J17_18_0" dir="r" state="m"/>
    <connection from=":clusterJ14_J16_J17_18" to="E8" fromLane="0" toLane="1" dir="r" state="m"/>
    <connection from=":clusterJ14_J16_J17_10" to="E7.61" fromLane="0" toLane="1" dir="s" state="M"/>
    <connection from=":clusterJ14_J16_J17_11" to="-E9" fromLane="0" toLane="2" via=":clusterJ14_J16_J17_19_0" dir="l" state="m"/>
    <connection from=":clusterJ14_J16_J17_19" to="-E9" fromLane="0" toLane="2" dir="l" state="m"/>

    <connection from=":J12_w0" to="E7" fromLane="0" toLane="0" dir="s" state="M"/>
    <connection from="-E7.68" to=":J12_w0" fromLane="0" toLane="0" dir="s" state="M"/>
    <connection from=":J13_w0" to="-E7" fromLane="0" toLane="0" dir="s" state="M"/>
    <connection from="E7.61" to=":J13_w0" fromLane="0" toLane="0" dir="s" state="M"/>
    <connection from=":J15_w0" to="-E8" fromLane="0" toLane="0" dir="s" state="M"/>
    <connection from="E8" to=":J15_w0" fromLane="0" toLane="0" dir="s" state="M"/>
    <connection from=":J18_w0" to="E9" fromLane="0" toLane="0" dir="s" state="M"/>
    <connection from="-E9" to=":J18_w0" fromLane="0" toLane="0" dir="s" state="M"/>
    <connection from=":clusterJ14_J16_J17_c0" to=":clusterJ14_J16_J17_w0" fromLane="0" toLane="0" dir="s" state="M"/>
    <connection from=":clusterJ14_J16_J17_c1" to=":clusterJ14_J16_J17_w1" fromLane="0" toLane="0" dir="s" state="M"/>
    <connection from=":clusterJ14_J16_J17_c2" to=":clusterJ14_J16_J17_w2" fromLane="0" toLane="0" dir="s" state="M"/>
    <connection from=":clusterJ14_J16_J17_c3" to=":clusterJ14_J16_J17_w3" fromLane="0" toLane="0" dir="s" state="M"/>
    <connection from=":clusterJ14_J16_J17_w0" to=":clusterJ14_J16_J17_c3" fromLane="0" toLane="0" tl="clusterJ14_J16_J17" linkIndex="15" dir="s" state="M"/>
    <connection from=":clusterJ14_J16_J17_w0" to="-E7.68" fromLane="0" toLane="0" dir="s" state="M"/>
    <connection from="E9" to=":clusterJ14_J16_J17_w0" fromLane="0" toLane="0" dir="s" state="M"/>
    <connection from=":clusterJ14_J16_J17_w1" to=":clusterJ14_J16_J17_c0" fromLane="0" toLane="0" tl="clusterJ14_J16_J17" linkIndex="12" dir="s" state="M"/>
    <connection from=":clusterJ14_J16_J17_w1" to="-E9" fromLane="0" toLane="0" dir="s" state="M"/>
    <connection from="-E7" to=":clusterJ14_J16_J17_w1" fromLane="0" toLane="0" dir="s" state="M"/>
    <connection from=":clusterJ14_J16_J17_w2" to=":clusterJ14_J16_J17_c1" fromLane="0" toLane="0" tl="clusterJ14_J16_J17" linkIndex="13" dir="s" state="M"/>
    <connection from=":clusterJ14_J16_J17_w2" to="E7.61" fromLane="0" toLane="0" dir="s" state="M"/>
    <connection from="-E8" to=":clusterJ14_J16_J17_w2" fromLane="0" toLane="0" dir="s" state="M"/>
    <connection from=":clusterJ14_J16_J17_w3" to=":clusterJ14_J16_J17_c2" fromLane="0" toLane="0" tl="clusterJ14_J16_J17" linkIndex="14" dir="s" state="M"/>
    <connection from=":clusterJ14_J16_J17_w3" to="E8" fromLane="0" toLane="0" dir="s" state="M"/>
    <connection from="E7" to=":clusterJ14_J16_J17_w3" fromLane="0" toLane="0" dir="s" state="M"/>
</net>
