<?xml version="1.0" encoding="UTF-8"?>

<!-- generated on 2026-03-04T18:48:35.429871-05:00 by Eclipse SUMO netconvert 1.26.0
<netconvertConfiguration xmlns:xsi="http://www.w3.org/2001/XMLSchema-instance" xsi:noNamespaceSchemaLocation="http://sumo.dlr.de/xsd/netconvertConfiguration.xsd">

    <input>
        <sumo-net-file value="intersection.net.xml"/>
    </input>

    <output>
        <output-file value="intersection.net.xml"/>
    </output>

    <processing>
        <geometry.min-radius.fix.railways value="false"/>
        <geometry.avoid-overlap value="false"/>
        <geometry.max-grade.fix value="false"/>
        <offset.disable-normalization value="true"/>
        <lefthand value="0"/>
    </processing>

    <junctions>
        <no-turnarounds value="true"/>
        <junctions.corner-detail value="5"/>
        <junctions.limit-turn-speed value="5.50"/>
        <rectangular-lane-cut value="0"/>
    </junctions>

    <pedestrian>
        <sidewalks.guess value="True"/>
        <crossings.guess value="True"/>
        <walkingareas value="0"/>
    </pedestrian>

</netconvertConfiguration>
-->

<net version="1.20" junctionCornerDetail="5" walkingareas="true" limitTurnSpeed="5.50" avoidOverlap="0" xmlns:xsi="http://www.w3.org/2001/XMLSchema-instance" xsi:noNamespaceSchemaLocation="http://sumo.dlr.de/xsd/net_file.xsd">

    <location netOffset="0.00,0.00" convBoundary="-200.00,-200.00,200.00,200.00" origBoundary="-10000000000.00,-10000000000.00,10000000000.00,10000000000.00" projParameter="!"/>

    <edge id=":J12_w0" function="walkingarea">
        <lane id=":J12_w0_0" index="0" allow="pedestrian" speed="2.78" length="14.80" width="2.00" shape="-199.94,-6.40 -199.93,-8.40 -200.06,8.40 -200.05,6.40"/>
    </edge>
    <edge id=":J13_w0" function="walkingarea">
        <lane id=":J13_w0_0" index="0" allow="pedestrian" speed="2.78" length="14.80" width="2.00" shape="200.05,6.40 200.06,8.40 199.93,-8.40 199.94,-6.40"/>
    </edge>
    <edge id=":J15_w0" function="walkingarea">
        <lane id=":J15_w0_0" index="0" allow="pedestrian" speed="2.78" length="14.80" width="2.00" shape="6.40,-199.99 8.40,-199.99 -8.40,-200.01 -6.40,-200.01"/>
    </edge>
    <edge id=":J18_w0" function="walkingarea">
        <lane id=":J18_w0_0" index="0" allow="pedestrian" speed="2.78" length="14.80" width="2.00" shape="-6.40,200.00 -8.40,200.00 8.40,200.00 6.40,200.00"/>
    </edge>
    <edge id=":clusterJ14_J16_J17_0" function="internal">
        <lane id=":clusterJ14_J16_J17_0_0" index="0" disallow="pedestrian" speed="6.60" length="5.02" shape="-4.80,11.88 -5.17,9.44 -6.27,7.69 -6.69,7.45"/>
    </edge>
    <edge id=":clusterJ14_J16_J17_1" function="internal">
        <lane id=":clusterJ14_J16_J17_1_0" index="0" disallow="pedestrian" speed="13.89" length="20.61" shape="-4.80,11.88 -4.98,-8.73"/>
        <lane id=":clusterJ14_J16_J17_1_1" index="1" disallow="pedestrian" speed="13.89" length="20.61" shape="-1.60,11.88 -1.78,-8.73"/>
    </edge>
    <edge id=":clusterJ14_J16_J17_3" function="internal">
        <lane id=":clusterJ14_J16_J17_3_0" index="0" disallow="pedestrian" speed="9.23" length="4.67" shape="-1.60,11.88 -0.93,7.25"/>
    </edge>
    <edge id=":clusterJ14_J16_J17_16" function="internal">
        <lane id=":clusterJ14_J16_J17_16_0" index="0" disallow="pedestrian" speed="6.60" length="4.24" shape="-6.69,7.45 -8.11,6.63 -10.68,6.26"/>
    </edge>
    <edge id=":clusterJ14_J16_J17_17" function="internal">
        <lane id=":clusterJ14_J16_J17_17_0" index="0" disallow="pedestrian" speed="9.23" length="14.42" shape="-0.93,7.25 -0.86,6.75 1.38,3.07 5.10,0.84 10.31,0.06"/>
    </edge>
    <edge id=":clusterJ14_J16_J17_4" function="internal">
        <lane id=":clusterJ14_J16_J17_4_0" index="0" disallow="pedestrian" speed="6.52" length="4.72" shape="10.37,6.26 7.93,6.63 6.19,7.69 6.08,7.88"/>
    </edge>
    <edge id=":clusterJ14_J16_J17_5" function="internal">
        <lane id=":clusterJ14_J16_J17_5_0" index="0" disallow="pedestrian" speed="13.89" length="21.02" shape="10.37,6.26 -10.68,6.26"/>
        <lane id=":clusterJ14_J16_J17_5_1" index="1" disallow="pedestrian" speed="13.89" length="21.02" shape="10.34,3.06 -10.65,3.06"/>
    </edge>
    <edge id=":clusterJ14_J16_J17_7" function="internal">
        <lane id=":clusterJ14_J16_J17_7_0" index="0" disallow="pedestrian" speed="9.22" length="3.87" shape="10.34,3.06 6.51,2.55"/>
    </edge>
    <edge id=":clusterJ14_J16_J17_18" function="internal">
        <lane id=":clusterJ14_J16_J17_18_0" index="0" disallow="pedestrian" speed="6.52" length="4.28" shape="6.08,7.88 5.15,9.44 4.80,11.88"/>
    </edge>
    <edge id=":clusterJ14_J16_J17_19" function="internal">
        <lane id=":clusterJ14_J16_J17_19_0" index="0" disallow="pedestrian" speed="9.22" length="15.45" shape="6.51,2.55 5.04,2.36 1.25,0.16 -1.02,-3.54 -1.78,-8.73"/>
    </edge>
    <edge id=":clusterJ14_J16_J17_8" function="internal">
        <lane id=":clusterJ14_J16_J17_8_0" index="0" disallow="pedestrian" speed="6.50" length="4.81" shape="4.62,-8.72 4.98,-6.26 6.04,-4.51 6.28,-4.37"/>
    </edge>
    <edge id=":clusterJ14_J16_J17_9" function="internal">
        <lane id=":clusterJ14_J16_J17_9_0" index="0" disallow="pedestrian" speed="13.89" length="20.60" shape="4.62,-8.72 4.80,11.88"/>
        <lane id=":clusterJ14_J16_J17_9_1" index="1" disallow="pedestrian" speed="13.89" length="20.60" shape="1.42,-8.73 1.60,11.88"/>
    </edge>
    <edge id=":clusterJ14_J16_J17_11" function="internal">
        <lane id=":clusterJ14_J16_J17_11_0" index="0" disallow="pedestrian" speed="9.22" length="4.64" shape="1.42,-8.73 0.75,-4.13"/>
    </edge>
    <edge id=":clusterJ14_J16_J17_20" function="internal">
        <lane id=":clusterJ14_J16_J17_20_0" index="0" disallow="pedestrian" speed="6.50" length="4.28" shape="6.28,-4.37 7.81,-3.47 10.29,-3.14"/>
    </edge>
    <edge id=":clusterJ14_J16_J17_21" function="internal">
        <lane id=":clusterJ14_J16_J17_21_0" index="0" disallow="pedestrian" speed="9.22" length="14.63" shape="0.75,-4.13 0.67,-3.54 -1.60,0.16 -5.37,2.36 -10.65,3.06"/>
    </edge>
    <edge id=":clusterJ14_J16_J17_12" function="internal">
        <lane id=":clusterJ14_J16_J17_12_0" index="0" disallow="pedestrian" speed="6.50" length="4.78" shape="-10.60,-3.15 -8.14,-3.48 -6.38,-4.52 -6.25,-4.73"/>
    </edge>
    <edge id=":clusterJ14_J16_J17_13" function="internal">
        <lane id=":clusterJ14_J16_J17_13_0" index="0" disallow="pedestrian" speed="13.89" length="20.92" shape="-10.60,-3.15 10.29,-3.14"/>
        <lane id=":clusterJ14_J16_J17_13_1" index="1" disallow="pedestrian" speed="13.89" length="20.92" shape="-10.63,0.05 10.31,0.06"/>
    </edge>
    <edge id=":clusterJ14_J16_J17_15" function="internal">
        <lane id=":clusterJ14_J16_J17_15_0" index="0" disallow="pedestrian" speed="9.29" length="3.56" shape="-10.63,0.05 -7.10,0.57"/>
    </edge>
    <edge id=":clusterJ14_J16_J17_22" function="internal">
        <lane id=":clusterJ14_J16_J17_22_0" index="0" disallow="pedestrian" speed="6.50" length="4.28" shape="-6.25,-4.73 -5.33,-6.27 -4.98,-8.73"/>
    </edge>
    <edge id=":clusterJ14_J16_J17_23" function="internal">
        <lane id=":clusterJ14_J16_J17_23_0" index="0" disallow="pedestrian" speed="9.29" length="15.79" shape="-7.10,0.57 -5.28,0.83 -1.46,3.06 0.84,6.74 1.60,11.88"/>
    </edge>
    <edge id=":clusterJ14_J16_J17_c0" function="crossing" crossingEdges="-E9 E9">
        <lane id=":clusterJ14_J16_J17_c0_0" index="0" allow="pedestrian" speed="2.78" length="12.80" width="4.00" shape="6.40,9.88 -6.40,9.88" outlineShape="6.50,11.88 -6.50,11.88 -6.52,10.66 -6.88,9.66 -7.47,8.88 -8.31,8.32 -8.52,8.25 -6.40,7.88 6.40,7.88 8.51,8.20 8.17,8.32 7.40,8.88 6.84,9.66 6.51,10.66"/>
    </edge>
    <edge id=":clusterJ14_J16_J17_c1" function="crossing" crossingEdges="E7.61 -E7">
        <lane id=":clusterJ14_J16_J17_c1_0" index="0" allow="pedestrian" speed="2.78" length="12.60" width="4.00" shape="8.27,-4.72 8.38,7.88" outlineShape="10.27,-4.84 10.38,7.96 9.16,7.98 8.17,8.32 7.40,8.88 6.84,9.66 6.51,10.66 6.41,11.72 6.24,-8.57 6.34,-7.49 6.67,-6.49 7.23,-5.72 8.02,-5.16 9.03,-4.84"/>
    </edge>
    <edge id=":clusterJ14_J16_J17_c2" function="crossing" crossingEdges="E8 -E8">
        <lane id=":clusterJ14_J16_J17_c2_0" index="0" allow="pedestrian" speed="2.78" length="12.80" width="4.00" shape="-6.58,-6.73 6.22,-6.72" outlineShape="-6.58,-8.73 6.22,-8.72 6.34,-7.49 6.67,-6.49 7.23,-5.72 8.02,-5.16 8.33,-5.06 6.22,-4.72 -6.58,-4.73 -8.69,-5.07 -8.36,-5.17 -7.58,-5.72 -7.02,-6.50 -6.69,-7.51"/>
    </edge>
    <edge id=":clusterJ14_J16_J17_c3" function="crossing" crossingEdges="-E7.68 E7">
        <lane id=":clusterJ14_J16_J17_c3_0" index="0" allow="pedestrian" speed="2.78" length="12.60" width="4.00" shape="-8.69,7.87 -8.59,-4.73" outlineShape="-10.69,7.96 -10.59,-4.84 -9.36,-4.85 -8.36,-5.17 -7.58,-5.72 -7.02,-6.50 -6.91,-6.83 -6.59,-4.71 -6.69,7.89 -6.78,9.92 -6.88,9.66 -7.47,8.88 -8.31,8.32 -9.38,7.98"/>
    </edge>
    <edge id=":clusterJ14_J16_J17_w0" function="walkingarea">
        <lane id=":clusterJ14_J16_J17_w0_0" index="0" allow="pedestrian" speed="2.78" length="3.43" width="4.00" shape="-10.69,7.86 -10.70,9.86 -8.40,11.88 -6.40,11.88 -6.52,10.66 -6.88,9.66 -7.47,8.88 -8.31,8.32 -9.38,7.98"/>
    </edge>
    <edge id=":clusterJ14_J16_J17_w1" function="walkingarea">
        <lane id=":clusterJ14_J16_J17_w1_0" index="0" allow="pedestrian" speed="2.78" length="3.30" width="4.00" shape="6.40,11.88 8.40,11.88 10.40,9.86 10.38,7.86 9.16,7.98 8.17,8.32 7.40,8.88 6.84,9.66 6.51,10.66"/>
    </edge>
    <edge id=":clusterJ14_J16_J17_w2" function="walkingarea">
        <lane id=":clusterJ14_J16_J17_w2_0" index="0" allow="pedestrian" speed="2.78" length="3.31" width="4.00" shape="10.27,-4.74 10.25,-6.74 8.22,-8.72 6.22,-8.72 6.34,-7.49 6.67,-6.49 7.23,-5.72 8.02,-5.16 9.03,-4.84"/>
    </edge>
    <edge id=":clusterJ14_J16_J17_w3" function="walkingarea">
        <lane id=":clusterJ14_J16_J17_w3_0" index="0" allow="pedestrian" speed="2.78" length="3.30" width="4.00" shape="-6.58,-8.73 -8.58,-8.74 -10.58,-6.74 -10.59,-4.75 -9.36,-4.85 -8.36,-5.17 -7.58,-5.72 -7.02,-6.50 -6.69,-7.51"/>
    </edge>

    <edge id="-E7" from="J13" to="clusterJ14_J16_J17" priority="-1" shape="200.00,0.00 -0.07,1.54">
        <lane id="-E7_0" index="0" allow="pedestrian" speed="13.89" length="189.67" width="2.00" shape="200.06,7.40 10.39,8.86"/>
        <lane id="-E7_1" index="1" disallow="pedestrian" speed="13.89" length="189.67" shape="200.04,4.80 10.37,6.26"/>
        <lane id="-E7_2" index="2" disallow="pedestrian" speed="13.89" length="189.67" shape="200.01,1.60 10.34,3.06"/>
    </edge>
    <edge id="-E7.68" from="clusterJ14_J16_J17" to="J12" priority="-1" shape="-0.07,1.54 -200.00,0.00">
        <lane id="-E7.68_0" index="0" allow="pedestrian" speed="13.89" length="189.37" width="2.00" shape="-10.70,8.86 -200.06,7.40"/>
        <lane id="-E7.68_1" index="1" disallow="pedestrian" speed="13.89" length="189.37" shape="-10.68,6.26 -200.04,4.80"/>
        <lane id="-E7.68_2" index="2" disallow="pedestrian" speed="13.89" length="189.37" shape="-10.65,3.06 -200.01,1.60"/>
    </edge>
    <edge id="-E8" from="J15" to="clusterJ14_J16_J17" priority="-1" shape="0.00,-200.00 -0.18,-3.28">
        <lane id="-E8_0" index="0" allow="pedestrian" speed="13.89" length="191.27" width="2.00" shape="7.40,-199.99 7.22,-8.72"/>
        <lane id="-E8_1" index="1" disallow="pedestrian" speed="13.89" length="191.27" shape="4.80,-200.00 4.62,-8.72"/>
        <lane id="-E8_2" index="2" disallow="pedestrian" speed="13.89" length="191.27" shape="1.60,-200.00 1.42,-8.73"/>
    </edge>
    <edge id="-E9" from="clusterJ14_J16_J17" to="J18" priority="-1">
        <lane id="-E9_0" index="0" allow="pedestrian" speed="13.89" length="188.12" width="2.00" shape="7.40,11.88 7.40,200.00"/>
        <lane id="-E9_1" index="1" disallow="pedestrian" speed="13.89" length="188.12" shape="4.80,11.88 4.80,200.00"/>
        <lane id="-E9_2" index="2" disallow="pedestrian" speed="13.89" length="188.12" shape="1.60,11.88 1.60,200.00"/>
    </edge>
    <edge id="E7" from="J12" to="clusterJ14_J16_J17" priority="-1" shape="-200.00,0.00 0.25,1.75">
        <lane id="E7_0" index="0" allow="pedestrian" speed="13.89" length="189.36" width="2.00" shape="-199.94,-7.40 -10.58,-5.74"/>
        <lane id="E7_1" index="1" disallow="pedestrian" speed="13.89" length="189.36" shape="-199.96,-4.80 -10.60,-3.15"/>
        <lane id="E7_2" index="2" disallow="pedestrian" speed="13.89" length="189.36" shape="-199.99,-1.60 -10.63,0.05"/>
    </edge>
    <edge id="E7.61" from="clusterJ14_J16_J17" to="J13" priority="-1" shape="0.25,1.75 200.00,0.00">
        <lane id="E7.61_0" index="0" allow="pedestrian" speed="13.89" length="189.68" width="2.00" shape="10.26,-5.74 199.94,-7.40"/>
        <lane id="E7.61_1" index="1" disallow="pedestrian" speed="13.89" length="189.68" shape="10.29,-3.14 199.96,-4.80"/>
        <lane id="E7.61_2" index="2" disallow="pedestrian" speed="13.89" length="189.68" shape="10.31,0.06 199.99,-1.60"/>
    </edge>
    <edge id="E8" from="clusterJ14_J16_J17" to="J15" priority="-1" shape="-0.18,-3.28 0.00,-200.00">
        <lane id="E8_0" index="0" allow="pedestrian" speed="13.89" length="191.27" width="2.00" shape="-7.58,-8.73 -7.40,-200.01"/>
        <lane id="E8_1" index="1" disallow="pedestrian" speed="13.89" length="191.27" shape="-4.98,-8.73 -4.80,-200.00"/>
        <lane id="E8_2" index="2" disallow="pedestrian" speed="13.89" length="191.27" shape="-1.78,-8.73 -1.60,-200.00"/>
    </edge>
    <edge id="E9" from="J18" to="clusterJ14_J16_J17" priority="-1">
        <lane id="E9_0" index="0" allow="pedestrian" speed="13.89" length="188.12" width="2.00" shape="-7.40,200.00 -7.40,11.88"/>
        <lane id="E9_1" index="1" disallow="pedestrian" speed="13.89" length="188.12" shape="-4.80,200.00 -4.80,11.88"/>
        <lane id="E9_2" index="2" disallow="pedestrian" speed="13.89" length="188.12" shape="-1.60,200.00 -1.60,11.88"/>
    </edge>

    <tlLogic id="clusterJ14_J16_J17" type="static" programID="0" offset="0">
        <phase duration="37" state="gGGgrrrrgGGgrrrrGrGr"/>
        <phase duration="5"  state="gGGgrrrrgGGgrrrrrrrr"/>
        <phase duration="3"  state="yyyyrrrryyyyrrrrrrrr"/>
        <phase duration="37" state="rrrrgGGgrrrrgGGgrGrG"/>
        <phase duration="5"  state="rrrrgGGgrrrrgGGgrrrr"/>
        <phase duration="3"  state="rrrryyyyrrrryyyyrrrr"/>
    </tlLogic>

    <junction id="J12" type="dead_end" x="-200.00" y="0.00" incLanes="-E7.68_0 -E7.68_1 -E7.68_2" intLanes="" shape="-200.00,0.00 -199.93,-8.40 -200.06,8.40"/>
    <junction id="J13" type="dead_end" x="200.00" y="0.00" incLanes="E7.61_0 E7.61_1 E7.61_2" intLanes="" shape="200.00,0.00 200.06,8.40 199.93,-8.40"/>
    <junction id="J15" type="dead_end" x="0.00" y="-200.00" incLanes="E8_0 E8_1 E8_2" intLanes="" shape="0.00,-200.00 -8.40,-200.01 0.00,-200.00"/>
    <junction id="J18" type="dead_end" x="0.00" y="200.00" incLanes="-E9_0 -E9_1 -E9_2" intLanes="" shape="0.00,200.00 8.40,200.00 0.00,200.00"/>
    <junction id="clusterJ14_J16_J17" type="traffic_light" x="0.00" y="0.00" incLanes="E9_0 E9_1 E9_2 -E7_0 -E7_1 -E7_2 -E8_0 -E8_1 -E8_2 E7_0 E7_1 E7_2 :clusterJ14_J16_J17_w1_0 :clusterJ14_J16_J17_w2_0 :clusterJ14_J16_J17_w3_0 :clusterJ14_J16_J17_w0_0" intLanes=":clusterJ14_J16_J17_16_0 :clusterJ14_J16_J17_1_0 :clusterJ14_J16_J17_1_1 :clusterJ14_J16_J17_17_0 :clusterJ14_J16_J17_18_0 :clusterJ14_J16_J17_5_0 :clusterJ14_J16_J17_5_1 :clusterJ14_J16_J17_19_0 :clusterJ14_J16_J17_20_0 :clusterJ14_J16_J17_9_0 :clusterJ14_J16_J17_9_1 :clusterJ14_J16_J17_21_0 :clusterJ14_J16_J17_22_0 :clusterJ14_J16_J17_13_0 :clusterJ14_J16_J17_13_1 :clusterJ14_J16_J17_23_0 :clusterJ14_J16_J17_c0_0 :clusterJ14_J16_J17_c1_0 :clusterJ14_J16_J17_c2_0 :clusterJ14_J16_J17_c3_0" shape="-8.40,11.88 8.40,11.88 8.62,10.76 8.90,10.37 9.29,10.09 9.79,9.92 10.40,9.86 10.25,-6.74 9.13,-6.95 8.73,-7.22 8.45,-7.61 8.28,-8.11 8.22,-8.72 -8.58,-8.74 -8.80,-7.62 -9.08,-7.23 -9.47,-6.96 -9.97,-6.80 -10.58,-6.74 -10.70,9.86 -9.42,10.09 -8.98,10.37 -8.66,10.76 -8.46,11.26">
        <request index="0"  response="10010000000000000000" foes="10010000000001100000" cont="1"/>
        <request index="1"  response="01011001000000000000" foes="01011111100011100000" cont="0"/>
        <request index="2"  response="01011000000010000000" foes="01011111100011100000" cont="0"/>
        <request index="3"  response="00111000011010000000" foes="00111110011011100000" cont="1"/>
        <request index="4"  response="00110000011000000000" foes="00110000011000000000" cont="1"/>
        <request index="5"  response="10100000111000001111" foes="10101000111000001111" cont="0"/>
        <request index="6"  response="10100000111000001111" foes="10101000111000001111" cont="0"/>
        <request index="7"  response="01100110111000001110" foes="01100110111000001110" cont="1"/>
        <request index="8"  response="01100000000000000000" foes="01100110000000000000" cont="1"/>
        <request index="9"  response="01010000000010010000" foes="01011110000011111000" cont="0"/>
        <request index="10" response="01011000000010000000" foes="01011110000011111000" cont="0"/>
        <request index="11" response="11001000000010000110" foes="11001110000011100110" cont="1"/>
        <request index="12" response="11000000000000000110" foes="11000000000000000110" cont="1"/>
        <request index="13" response="10100000111100001110" foes="10100000111110001110" cont="0"/>
        <request index="14" response="10100000111100001110" foes="10100000111110001110" cont="0"/>
        <request index="15" response="10010000111001101110" foes="10010000111001101110" cont="1"/>
        <request index="16" response="00000000000000000000" foes="00001000011000011111" cont="0"/>
        <request index="17" response="00000000000000000000" foes="00000110000111111000" cont="0"/>
        <request index="18" response="00000000000000000000" foes="00000001111110000110" cont="0"/>
        <request index="19" response="00000000000000000000" foes="00001111100001100001" cont="0"/>
    </junction>

    <junction id=":clusterJ14_J16_J17_16_0" type="internal" x="-6.69" y="7.45" incLanes=":clusterJ14_J16_J17_0_0" intLanes=":clusterJ14_J16_J17_5_0 :clusterJ14_J16_J17_5_1 :clusterJ14_J16_J17_11_0 :clusterJ14_J16_J17_c0_0 :clusterJ14_J16_J17_c3_0"/>
    <junction id=":clusterJ14_J16_J17_17_0" type="internal" x="-0.93" y="7.25" incLanes=":clusterJ14_J16_J17_3_0 -E8_1 -E8_2" intLanes=":clusterJ14_J16_J17_5_0 :clusterJ14_J16_J17_5_1 :clusterJ14_J16_J17_7_0 :clusterJ14_J16_J17_8_0 :clusterJ14_J16_J17_9_0 :clusterJ14_J16_J17_9_1 :clusterJ14_J16_J17_13_0 :clusterJ14_J16_J17_13_1 :clusterJ14_J16_J17_15_0 :clusterJ14_J16_J17_c0_0 :clusterJ14_J16_J17_c1_0"/>
    <junction id=":clusterJ14_J16_J17_18_0" type="internal" x="6.08" y="7.88" incLanes=":clusterJ14_J16_J17_4_0" intLanes=":clusterJ14_J16_J17_9_0 :clusterJ14_J16_J17_9_1 :clusterJ14_J16_J17_15_0 :clusterJ14_J16_J17_c0_0 :clusterJ14_J16_J17_c1_0"/>
    <junction id=":clusterJ14_J16_J17_19_0" type="internal" x="6.51" y="2.55" incLanes=":clusterJ14_J16_J17_7_0 E7_1 E7_2" intLanes=":clusterJ14_J16_J17_1_0 :clusterJ14_J16_J17_1_1 :clusterJ14_J16_J17_3_0 :clusterJ14_J16_J17_9_0 :clusterJ14_J16_J17_9_1 :clusterJ14_J16_J17_11_0 :clusterJ14_J16_J17_12_0 :clusterJ14_J16_J17_13_0 :clusterJ14_J16_J17_13_1 :clusterJ14_J16_J17_c1_0 :clusterJ14_J16_J17_c2_0"/>
    <junction id=":clusterJ14_J16_J17_20_0" type="internal" x="6.28" y="-4.37" incLanes=":clusterJ14_J16_J17_8_0" intLanes=":clusterJ14_J16_J17_3_0 :clusterJ14_J16_J17_13_0 :clusterJ14_J16_J17_13_1 :clusterJ14_J16_J17_c1_0 :clusterJ14_J16_J17_c2_0"/>
    <junction id=":clusterJ14_J16_J17_21_0" type="internal" x="0.75" y="-4.13" incLanes=":clusterJ14_J16_J17_11_0 E9_1 E9_2" intLanes=":clusterJ14_J16_J17_0_0 :clusterJ14_J16_J17_1_0 :clusterJ14_J16_J17_1_1 :clusterJ14_J16_J17_5_0 :clusterJ14_J16_J17_5_1 :clusterJ14_J16_J17_7_0 :clusterJ14_J16_J17_13_0 :clusterJ14_J16_J17_13_1 :clusterJ14_J16_J17_15_0 :clusterJ14_J16_J17_c2_0 :clusterJ14_J16_J17_c3_0"/>
    <junction id=":clusterJ14_J16_J17_22_0" type="internal" x="-6.25" y="-4.73" incLanes=":clusterJ14_J16_J17_12_0" intLanes=":clusterJ14_J16_J17_1_0 :clusterJ14_J16_J17_1_1 :clusterJ14_J16_J17_7_0 :clusterJ14_J16_J17_c2_0 :clusterJ14_J16_J17_c3_0"/>
    <junction id=":clusterJ14_J16_J17_23_0" type="internal" x="-7.10" y="0.57" incLanes=":clusterJ14_J16_J17_15_0 -E7_1 -E7_2" intLanes=":clusterJ14_J16_J17_1_0 :clusterJ14_J16_J17_1_1 :clusterJ14_J16_J17_3_0 :clusterJ14_J16_J17_4_0 :clusterJ14_J16_J17_5_0 :clusterJ14_J16_J17_5_1 :clusterJ14_J16_J17_9_0 :clusterJ14_J16_J17_9_1 :clusterJ14_J16_J17_11_0 :clusterJ14_J16_J17_c0_0 :clusterJ14_J16_J17_c3_0"/>

    <connection from="-E7" to="-E9" fromLane="1" toLane="1" via=":clusterJ14_J16_J17_4_0" tl="clusterJ14_J16_J17" linkIndex="0" dir="r" state="o"/>
    <connection from="-E7" to="-E7.68" fromLane="1" toLane="1" via=":clusterJ14_J16_J17_5_0" tl="clusterJ14_J16_J17" linkIndex="1" dir="s" state="o"/>
    <connection from="-E7" to="-E7.68" fromLane="2" toLane="2" via=":clusterJ14_J16_J17_5_1" tl="clusterJ14_J16_J17" linkIndex="2" dir="s" state="o"/>
    <connection from="-E7" to="E8" fromLane="2" toLane="2" via=":clusterJ14_J16_J17_7_0" tl="clusterJ14_J16_J17" linkIndex="3" dir="l" state="o"/>
    <connection from="-E8" to="E7.61" fromLane="1" toLane="1" via=":clusterJ14_J16_J17_8_0" tl="clusterJ14_J16_J17" linkIndex="4" dir="r" state="o"/>
    <connection from="-E8" to="-E9" fromLane="1" toLane="1" via=":clusterJ14_J16_J17_9_0" tl="clusterJ14_J16_J17" linkIndex="5" dir="s" state="o"/>
    <connection from="-E8" to="-E9" fromLane="2" toLane="2" via=":clusterJ14_J16_J17_9_1" tl="clusterJ14_J16_J17" linkIndex="6" dir="s" state="o"/>
    <connection from="-E8" to="-E7.68" fromLane="2" toLane="2" via=":clusterJ14_J16_J17_11_0" tl="clusterJ14_J16_J17" linkIndex="7" dir="l" state="o"/>
    <connection from="E7" to="E8" fromLane="1" toLane="1" via=":clusterJ14_J16_J17_12_0" tl="clusterJ14_J16_J17" linkIndex="8" dir="r" state="o"/>
    <connection from="E7" to="E7.61" fromLane="1" toLane="1" via=":clusterJ14_J16_J17_13_0" tl="clusterJ14_J16_J17" linkIndex="9" dir="s" state="o"/>
    <connection from="E7" to="E7.61" fromLane="2" toLane="2" via=":clusterJ14_J16_J17_13_1" tl="clusterJ14_J16_J17" linkIndex="10" dir="s" state="o"/>
    <connection from="E7" to="-E9" fromLane="2" toLane="2" via=":clusterJ14_J16_J17_15_0" tl="clusterJ14_J16_J17" linkIndex="11" dir="l" state="o"/>
    <connection from="E9" to="-E7.68" fromLane="1" toLane="1" via=":clusterJ14_J16_J17_0_0" tl="clusterJ14_J16_J17" linkIndex="12" dir="r" state="o"/>
    <connection from="E9" to="E8" fromLane="1" toLane="1" via=":clusterJ14_J16_J17_1_0" tl="clusterJ14_J16_J17" linkIndex="13" dir="s" state="o"/>
    <connection from="E9" to="E8" fromLane="2" toLane="2" via=":clusterJ14_J16_J17_1_1" tl="clusterJ14_J16_J17" linkIndex="14" dir="s" state="o"/>
    <connection from="E9" to="E7.61" fromLane="2" toLane="2" via=":clusterJ14_J16_J17_3_0" tl="clusterJ14_J16_J17" linkIndex="15" dir="l" state="o"/>

    <connection from=":clusterJ14_J16_J17_0" to="-E7.68" fromLane="0" toLane="1" via=":clusterJ14_J16_J17_16_0" dir="r" state="m"/>
    <connection from=":clusterJ14_J16_J17_16" to="-E7.68" fromLane="0" toLane="1" dir="r" state="m"/>
    <connection from=":clusterJ14_J16_J17_1" to="E8" fromLane="0" toLane="1" dir="s" state="M"/>
    <connection from=":clusterJ14_J16_J17_1" to="E8" fromLane="1" toLane="2" dir="s" state="M"/>
    <connection from=":clusterJ14_J16_J17_3" to="E7.61" fromLane="0" toLane="2" via=":clusterJ14_J16_J17_17_0" dir="l" state="m"/>
    <connection from=":clusterJ14_J16_J17_17" to="E7.61" fromLane="0" toLane="2" dir="l" state="m"/>
    <connection from=":clusterJ14_J16_J17_4" to="-E9" fromLane="0" toLane="1" via=":clusterJ14_J16_J17_18_0" dir="r" state="m"/>
    <connection from=":clusterJ14_J16_J17_18" to="-E9" fromLane="0" toLane="1" dir="r" state="m"/>
    <connection from=":clusterJ14_J16_J17_5" to="-E7.68" fromLane="0" toLane="1" dir="s" state="M"/>
    <connection from=":clusterJ14_J16_J17_5" to="-E7.68" fromLane="1" toLane="2" dir="s" state="M"/>
    <connection from=":clusterJ14_J16_J17_7" to="E8" fromLane="0" toLane="2" via=":clusterJ14_J16_J17_19_0" dir="l" state="m"/>
    <connection from=":clusterJ14_J16_J17_19" to="E8" fromLane="0" toLane="2" dir="l" state="m"/>
    <connection from=":clusterJ14_J16_J17_8" to="E7.61" fromLane="0" toLane="1" via=":clusterJ14_J16_J17_20_0" dir="r" state="m"/>
    <connection from=":clusterJ14_J16_J17_20" to="E7.61" fromLane="0" toLane="1" dir="r" state="m"/>
    <connection from=":clusterJ14_J16_J17_9" to="-E9" fromLane="0" toLane="1" dir="s" state="M"/>
    <connection from=":clusterJ14_J16_J17_9" to="-E9" fromLane="1" toLane="2" dir="s" state="M"/>
    <connection from=":clusterJ14_J16_J17_11" to="-E7.68" fromLane="0" toLane="2" via=":clusterJ14_J16_J17_21_0" dir="l" state="m"/>
    <connection from=":clusterJ14_J16_J17_21" to="-E7.68" fromLane="0" toLane="2" dir="l" state="m"/>
    <connection from=":clusterJ14_J16_J17_12" to="E8" fromLane="0" toLane="1" via=":clusterJ14_J16_J17_22_0" dir="r" state="m"/>
    <connection from=":clusterJ14_J16_J17_22" to="E8" fromLane="0" toLane="1" dir="r" state="m"/>
    <connection from=":clusterJ14_J16_J17_13" to="E7.61" fromLane="0" toLane="1" dir="s" state="M"/>
    <connection from=":clusterJ14_J16_J17_13" to="E7.61" fromLane="1" toLane="2" dir="s" state="M"/>
    <connection from=":clusterJ14_J16_J17_15" to="-E9" fromLane="0" toLane="2" via=":clusterJ14_J16_J17_23_0" dir="l" state="m"/>
    <connection from=":clusterJ14_J16_J17_23" to="-E9" fromLane="0" toLane="2" dir="l" state="m"/>

    <connection from=":J12_w0" to="E7" fromLane="0" toLane="0" dir="s" state="M"/>
    <connection from="-E7.68" to=":J12_w0" fromLane="0" toLane="0" dir="s" state="M"/>
    <connection from=":J13_w0" to="-E7" fromLane="0" toLane="0" dir="s" state="M"/>
    <connection from="E7.61" to=":J13_w0" fromLane="0" toLane="0" dir="s" state="M"/>
    <connection from=":J15_w0" to="-E8" fromLane="0" toLane="0" dir="s" state="M"/>
    <connection from="E8" to=":J15_w0" fromLane="0" toLane="0" dir="s" state="M"/>
    <connection from=":J18_w0" to="E9" fromLane="0" toLane="0" dir="s" state="M"/>
    <connection from="-E9" to=":J18_w0" fromLane="0" toLane="0" dir="s" state="M"/>
    <connection from=":clusterJ14_J16_J17_c0" to=":clusterJ14_J16_J17_w0" fromLane="0" toLane="0" dir="s" state="M"/>
    <connection from=":clusterJ14_J16_J17_c1" to=":clusterJ14_J16_J17_w1" fromLane="0" toLane="0" dir="s" state="M"/>
    <connection from=":clusterJ14_J16_J17_c2" to=":clusterJ14_J16_J17_w2" fromLane="0" toLane="0" dir="s" state="M"/>
    <connection from=":clusterJ14_J16_J17_c3" to=":clusterJ14_J16_J17_w3" fromLane="0" toLane="0" dir="s" state="M"/>
    <connection from=":clusterJ14_J16_J17_w0" to=":clusterJ14_J16_J17_c3" fromLane="0" toLane="0" tl="clusterJ14_J16_J17" linkIndex="19" dir="s" state="M"/>
    <connection from=":clusterJ14_J16_J17_w0" to="-E7.68" fromLane="0" toLane="0" dir="s" state="M"/>
    <connection from="E9" to=":clusterJ14_J16_J17_w0" fromLane="0" toLane="0" dir="s" state="M"/>
    <connection from=":clusterJ14_J16_J17_w1" to=":clusterJ14_J16_J17_c0" fromLane="0" toLane="0" tl="clusterJ14_J16_J17" linkIndex="16" dir="s" state="M"/>
    <connection from=":clusterJ14_J16_J17_w1" to="-E9" fromLane="0" toLane="0" dir="s" state="M"/>
    <connection from="-E7" to=":clusterJ14_J16_J17_w1" fromLane="0" toLane="0" dir="s" state="M"/>
    <connection from=":clusterJ14_J16_J17_w2" to=":clusterJ14_J16_J17_c1" fromLane="0" toLane="0" tl="clusterJ14_J16_J17" linkIndex="17" dir="s" state="M"/>
    <connection from=":clusterJ14_J16_J17_w2" to="E7.61" fromLane="0" toLane="0" dir="s" state="M"/>
    <connection from="-E8" to=":clusterJ14_J16_J17_w2" fromLane="0" toLane="0" dir="s" state="M"/>
    <connection from=":clusterJ14_J16_J17_w3" to=":clusterJ14_J16_J17_c2" fromLane="0" toLane="0" tl="clusterJ14_J16_J17" linkIndex="18" dir="s" state="M"/>
    <connection from=":clusterJ14_J16_J17_w3" to="E8" fromLane="0" toLane="0" dir="s" state="M"/>
    <connection from="E7" to=":clusterJ14_J16_J17_w3" fromLane="0" toLane="0" dir="s" state="M"/>
</net>
